2009UseCases/UseCases_100perc/UseCases_100perc_1.glm
// Main file for the D.O.E. Modern Grid Use Test Cases
//   This model uses taxonomy feeder R3-12.47-1.glm, with
//   constant triplex loads replaced with dynamic house models.
//   Distributed generation, in the form of solar panels, are
//   attached to approximately 100 percent of the homes.
//   A variety of tests and analysis will be performed on this
//   "standardized" system

clock {
     timezone MST+7MDT;
     starttime '2000-07-10 22:00:00';
     stoptime '2000-07-12 0:00:00';
}

module tape;
module powerflow {
     solver_method NR;
     NR_iteration_limit 20;
};

module residential {
     implicit_enduses PLUGS|LIGHTS;
};

module generators;
module climate;

#set minimum_timestep=60;
#set profiler=1;

schedule power_mag_1 {
       0-14  0 * * * 1.282;
      15-29  0 * * * 1.274;
      30-44  0 * * * 1.266;
      45-59  0 * * * 1.258;
       0-14  1 * * * 1.250;
      15-29  1 * * * 1.246;
      30-44  1 * * * 1.243;
      45-59  1 * * * 1.239;
       0-14  2 * * * 1.236;
      15-29  2 * * * 1.236;
      30-44  2 * * * 1.236;
      45-59  2 * * * 1.236;
       0-14  3 * * * 1.236;
      15-29  3 * * * 1.239;
      30-44  3 * * * 1.243;
      45-59  3 * * * 1.247;
       0-14  4 * * * 1.250;
      15-29  4 * * * 1.260;
      30-44  4 * * * 1.269;
      45-59  4 * * * 1.279;
       0-14  5 * * * 1.289;
      15-29  5 * * * 1.265;
      30-44  5 * * * 1.242;
      45-59  5 * * * 1.233;
       0-14  6 * * * 1.248;
      15-29  6 * * * 1.266;
      30-44  6 * * * 1.284;
      45-59  6 * * * 1.301;
       0-14  7 * * * 1.319;
      15-29  7 * * * 1.335;
      30-44  7 * * * 1.350;
      45-59  7 * * * 1.365;
       0-14  8 * * * 1.381;
      15-29  8 * * * 1.390;
      30-44  8 * * * 1.398;
      45-59  8 * * * 1.402;
       0-14  9 * * * 1.414;
      15-29  9 * * * 1.413;
      30-44  9 * * * 1.411;
      45-59  9 * * * 1.408;
       0-14  10 * * * 1.406;
      15-29  10 * * * 1.399;
      30-44  10 * * * 1.393;
      45-59  10 * * * 1.387;
       0-14  11 * * * 1.381;
      15-29  11 * * * 1.376;
      30-44  11 * * * 1.370;
      45-59  11 * * * 1.364;
       0-14  12 * * * 1.359;
      15-29  12 * * * 1.353;
      30-44  12 * * * 1.348;
      45-59  12 * * * 1.343;
       0-14  13 * * * 1.338;
      15-29  13 * * * 1.338;
      30-44  13 * * * 1.338;
      45-59  13 * * * 1.338;
       0-14  14 * * * 1.338;
      15-29  14 * * * 1.342;
      30-44  14 * * * 1.345;
      45-59  14 * * * 1.349;
       0-14  15 * * * 1.353;
      15-29  15 * * * 1.375;
      30-44  15 * * * 1.398;
      45-59  15 * * * 1.420;
       0-14  16 * * * 1.443;
      15-29  16 * * * 1.461;
      30-44  16 * * * 1.480;
      45-59  16 * * * 1.499;
       0-14  17 * * * 1.510;
      15-29  17 * * * 1.516;
      30-44  17 * * * 1.515;
      45-59  17 * * * 1.514;
       0-14  18 * * * 1.513;
      15-29  18 * * * 1.507;
      30-44  18 * * * 1.501;
      45-59  18 * * * 1.496;
       0-14  19 * * * 1.490;
      15-29  19 * * * 1.482;
      30-44  19 * * * 1.474;
      45-59  19 * * * 1.466;
       0-14  20 * * * 1.458;
      15-29  20 * * * 1.443;
      30-44  20 * * * 1.428;
      45-59  20 * * * 1.413;
       0-14  21 * * * 1.398;
      15-29  21 * * * 1.377;
      30-44  21 * * * 1.357;
      45-59  21 * * * 1.336;
       0-14  22 * * * 1.315;
      15-29  22 * * * 1.296;
      30-44  22 * * * 1.277;
      45-59  22 * * * 1.258;
       0-14  23 * * * 1.238;
      15-29  23 * * * 1.224;
      30-44  23 * * * 1.210;
      45-59  23 * * * 1.202;
};

schedule waterdemand1 {
     * 0-2 * * * 0;
     0-39 3 * * * 0.1;
     40-49 3 * * * 0.2;
     50-59 3 * * * 0.4;
     0-12 4 * * * 0.4;
     13-59 4 * * * 0;
     0-20 5 * * * 1.0;
     21-30 5 * * * 1.1;
     31-40 5 * * * 1.2;
      41-50 5 * * * 0.6;
     51-59 5 * * * 0.4;
     0-9 6 * * * 0.4;
     10-59 6 * * * 0;
     * 7-10 * * * 0;
     0-9 11 * * * 0;
     10-27 11 * * * 2.5;
     28-59 11 * * * 0;
     0-10 12 * * * 0;
     11-49 12 * * * 0.7;
     50-59 12 * * * 0;
     * 13-16 * * * 0;
     0-10 17-18 * * * 1.1;
     11-59 17-18 * * * 0;
     0-20 19 * * * 0;
     21-49 19 * * * 1.4;
     50-59 19 * * * 0;
     * 20-23 * * * 0;
}

schedule waterdemand2 {
     * 0-3 * * * 0;
     0-14 4 * * * 0;
     15-35 4 * * * 0.1;
     36-59 4 * * * 0.2;
     0-17 5 * * * 0.4;
     18-59 5 * * * 0;
     0-8 6 * * * 1.0;
     9-25 6 * * * 1.1;
     26-44 6 * * * 1.2;
      45-49 6 * * * 0.6;
     50-59 6 * * * 0.4;
     0-6 7 * * * 0.4;
     7-59 7 * * * 0;
     * 8 * * * 0;
     0-13 9 * * * 0.4;
     14-37 9 * * * 0.2;
     38-59 9 * * * 0;
     * 10 * * * 0;
     * 11 * * * 0;
     0-15 12 * * * 0;
     16-31 12 * * * 2.5;
     32-59 12 * * * 0;
     * 13-14 * * * 0;
     0-13 15 * * * 0;
     14-47 15 * * * 0.6;
     48-59 15 * * * 0;
     * 16-17 * * * 0;
     0-12 18-19 * * * 0;
     13-27 18-19 * * * 1.2;
     28-59 18-19 * * * 0;
     * 20-23 * * * 0;
}

schedule waterdemand3 {
     * 0-5 * * * 0;
     0-16 6 * * * 0;
     17-34 6 * * * 0.1;
     35-59 6 * * * 0.6;
     0-11 7 * * * 0.4;
     12-59 7 * * * 0;
     * 8-16 * * * 0;
     * 17 * * * 1;
     0-7 18 * * * 0.5;
     8-59 18 * * * 0;
     * 19-23 * * * 0;
}

schedule cooling1 {
     //Weekday Summer
    * 0-5 * 5-10 1-5 75;
    * 6-8 * 5-10 1-5 72;
    * 9-16 * 5-10 1-5 80;
    * 17-20 * 5-10 1-5 72;
    * 21-23 * 5-10 1-5 75;

     //Weekend Summer
    * 0-5 * 5-10 0,6 78;
    * 6-8 * 5-10 0,6 72;
    * 9-16 * 5-10 0,6 72;
    * 17-20 * 5-10 0,6 72;
    * 21-23 * 5-10 0,6 72;

     //Winter
     * * * 0-4,11 * 85;
}

schedule cooling2 {
     //Weekday Summer
    * 0-4 * 5-10 1-5 70;
    * 5-7 * 5-10 1-5 73;
    * 8-15 * 5-10 1-5 78;
    * 16-21 * 5-10 1-5 70;
    * 22-23 * 5-10 1-5 70;

     //Weekend Summer
    * 0-5 * 5-10 0,6 78;
    * 6-8 * 5-10 0,6 72;
    * 9-16 * 5-10 0,6 72;
    * 17-20 * 5-10 0,6 72;
    * 21-23 * 5-10 0,6 78;

     //Winter
     * * * 0-4,11 * 85;
}

schedule cooling3 {
     //Weekday Summer
    * 0-4 * 5-10 1-5 70;
    * 5-7 * 5-10 1-5 73;
    * 8-13 * 5-10 1-5 78;
    0-27 14 * 5-10 1-5 77;
    28-42 14 * 5-10 1-5 76;
    43-59 14 * 5-10 1-5 75;
    0-22 15 * 5-10 1-5 75;
    23-37 15 * 5-10 1-5 74;
    38-59 15 * 5-10 1-5 73;
    0-24 16 * 5-10 1-5 73;
    25-59 16 * 5-10 1-5 72;
    * 17-19 * 5-10 1-5 72;
    * 20-23 * 5-10 1-5 70;

     //Weekend Summer
    * 0-5 * 5-10 0,6 78;
    * 6-8 * 5-10 0,6 72;
    * 9-16 * 5-10 0,6 72;
    * 17-20 * 5-10 0,6 72;
    * 21-23 * 5-10 0,6 78;

     //Winter
     * * * 0-4,11 * 85;
}

schedule cooling4 {
     //Weekday Summer
    * 0-4 * 5-10 1-5 70;
    * 5-7 * 5-10 1-5 73;
    * 8-13 * 5-10 1-5 78;
    0-20 14 * 5-10 1-5 77;
    21-35 14 * 5-10 1-5 76;
    36-59 14 * 5-10 1-5 75;
    0-14 15 * 5-10 1-5 75;
    15-31 15 * 5-10 1-5 74;
    32-59 15 * 5-10 1-5 73;
    0-17 16 * 5-10 1-5 73;
    18-59 16 * 5-10 1-5 72;
    * 17-19 * 5-10 1-5 72;
    * 20-23 * 5-10 1-5 70;

     //Weekend Summer
    * 0-5 * 5-10 0,6 78;
    * 6-8 * 5-10 0,6 72;
    * 9-16 * 5-10 0,6 72;
    * 17-20 * 5-10 0,6 72;
    * 21-23 * 5-10 0,6 78;

     //Winter
     * * * 0-4,11 * 85;
}

schedule cooling5 {
     //Weekday Summer
    * 0-6 * 5-10 1-5 72;
    * 7-9 * 5-10 1-5 76;
    * 10-14 * 5-10 1-5 78;
    * 15-21 * 5-10 1-5 72;
    * 22-23 * 5-10 1-5 72;

     //Weekend Summer
    * 0-5 * 5-10 0,6 78;
    * 6-8 * 5-10 0,6 72;
    * 9-16 * 5-10 0,6 72;
    * 17-20 * 5-10 0,6 72;
    * 21-23 * 5-10 0,6 78;

     //Winter
     * * * 0-4,11 * 85;
}

#include "UseCases_100perc_2.glm";
#include "UseCases_100perc_3.glm";
#include "UseCases_100perc_4.glm";
#include "UseCases_100perc_5.glm";
#include "UseCases_100perc_6.glm";
#include "UseCases_100perc_7.glm";
#include "UseCases_100perc_8.glm";
#include "UseCases_100perc_9.glm";
#include "UseCases_100perc_10.glm";
#include "transmission_line_network.glm";
#include "recorders.glm";

object climate {
     name "Phoenix AZ";
     tmyfile "AZ-Phoenix.tmy2";
     interpolate QUADRATIC;
};

object voltdump {
     filename VoltDump_UseCases_100perc_1.csv;
     runtime 963302400;
}

object voltdump {
     filename VoltDump_UseCases_100perc_2.csv;
     runtime 963309600;
}

object voltdump {
     filename VoltDump_UseCases_100perc_3.csv;
     runtime 963316800;
}

object voltdump {
     filename VoltDump_UseCases_100perc_4.csv;
     runtime 963324000;
}

object voltdump {
     filename VoltDump_UseCases_100perc_5.csv;
     runtime 963331200;
}

object voltdump {
     filename VoltDump_UseCases_100perc_6.csv;
     runtime 963338400;
}

object voltdump {
     filename VoltDump_UseCases_100perc_7.csv;
     runtime 963345600;
}

object voltdump {
     filename VoltDump_UseCases_100perc_8.csv;
     runtime 963352800;
}

object voltdump {
     filename VoltDump_UseCases_100perc_9.csv;
     runtime 963360000;
}

object voltdump {
     filename VoltDump_UseCases_100perc_10.csv;
     runtime 963367200;
}

object voltdump {
     filename VoltDump_UseCases_100perc_11.csv;
     runtime 963374400;
}

object voltdump {
     filename VoltDump_UseCases_100perc_12.csv;
     runtime 963381600;
}

// Capacitors

object capacitor {
     name feeder_1_R3-12-47-1_cap_1; 
     phases ABCN; 
     pt_phase ABC;
     parent feeder_1_R3-12-47-1_node_238; 
     phases_connected ABC; 
     control VAR;
     VAr_set_high 200000;
     VAr_set_low 50000;
     remote_sense feeder_1_R3-12-47-1_ol_109;
     capacitor_A 0.4 MVAr;
     capacitor_B 0.4 MVAr;
     capacitor_C 0.4 MVAr;
     control_level INDIVIDUAL; 
     switchA OPEN; 
     switchB OPEN; 
     switchC OPEN; 
     time_delay 60;
     dwell_time 300;
     cap_nominal_voltage 7200; 
     nominal_voltage 7199.558; 
}

// Fuses

object fuse {
     name feeder_1_R3-12-47-1_fuse_1; 
     phases ABCN; 
     from feeder_1_R3-12-47-1_node_6; 
     to feeder_1_R3-12-47-1_node_14; 
     current_limit 150; 
     status CLOSED; 
     mean_replacement_time 10000;
}

object fuse {
     name feeder_1_R3-12-47-1_fuse_2; 
     phases ABCN; 
     from feeder_1_R3-12-47-1_node_16; 
     to feeder_1_R3-12-47-1_node_19; 
     current_limit 80; 
     status CLOSED; 
     mean_replacement_time 10000;
}

object fuse {
     name feeder_1_R3-12-47-1_fuse_3; 
     phases ABCN; 
     from feeder_1_R3-12-47-1_node_25; 
     to feeder_1_R3-12-47-1_node_26; 
     current_limit 30; 
     status CLOSED; 
     mean_replacement_time 10000;
}

object fuse {
     name feeder_1_R3-12-47-1_fuse_4; 
     phases ABCN; 
     from feeder_1_R3-12-47-1_node_38; 
     to feeder_1_R3-12-47-1_node_39; 
     current_limit 80; 
     status CLOSED; 
     mean_replacement_time 10000;
}

object fuse {
     name feeder_1_R3-12-47-1_fuse_5; 
     phases ABCN; 
     from feeder_1_R3-12-47-1_node_53; 
     to feeder_1_R3-12-47-1_node_54; 
     current_limit 80; 
     status CLOSED; 
     mean_replacement_time 10000;
}

object fuse {
     name feeder_1_R3-12-47-1_fuse_6; 
     phases ABCN; 
     from feeder_1_R3-12-47-1_node_69; 
     to feeder_1_R3-12-47-1_node_70; 
     current_limit 150; 
     status CLOSED; 
     mean_replacement_time 10000;
}

object fuse {
     name feeder_1_R3-12-47-1_fuse_7; 
     phases ABN; 
     from feeder_1_R3-12-47-1_node_92; 
     to feeder_1_R3-12-47-1_node_93; 
     current_limit 30; 
     status CLOSED; 
     mean_replacement_time 10000;
}

object fuse {
     name feeder_1_R3-12-47-1_fuse_8; 
     phases ABN; 
     from feeder_1_R3-12-47-1_node_98; 
     to feeder_1_R3-12-47-1_node_99; 
     current_limit 30; 
     status CLOSED; 
     mean_replacement_time 10000;
}

object fuse {
     name feeder_1_R3-12-47-1_fuse_9; 
     phases ABCN; 
     from feeder_1_R3-12-47-1_node_103; 
     to feeder_1_R3-12-47-1_node_104; 
     current_limit 30; 
     status CLOSED; 
     mean_replacement_time 10000;
}

object fuse {
     name feeder_1_R3-12-47-1_fuse_10; 
     phases ABCN; 
     from feeder_1_R3-12-47-1_node_112; 
     to feeder_1_R3-12-47-1_node_113; 
     current_limit 100; 
     status CLOSED; 
     mean_replacement_time 10000;
}

object fuse {
     name feeder_1_R3-12-47-1_fuse_11; 
     phases ABCN; 
     from feeder_1_R3-12-47-1_node_122; 
     to feeder_1_R3-12-47-1_node_123; 
     current_limit 100; 
     status CLOSED; 
     mean_replacement_time 10000;
}

object fuse {
     name feeder_1_R3-12-47-1_fuse_12; 
     phases ABCN; 
     from feeder_1_R3-12-47-1_node_126; 
     to feeder_1_R3-12-47-1_node_127; 
     current_limit 75; 
     status CLOSED; 
     mean_replacement_time 10000;
}

object fuse {
     name feeder_1_R3-12-47-1_fuse_13; 
     phases ABCN; 
     from feeder_1_R3-12-47-1_node_129; 
     to feeder_1_R3-12-47-1_node_130; 
     current_limit 20; 
     status CLOSED; 
     mean_replacement_time 10000;
}

object fuse {
     name feeder_1_R3-12-47-1_fuse_14; 
     phases ABCN; 
     from feeder_1_R3-12-47-1_node_153; 
     to feeder_1_R3-12-47-1_node_154; 
     current_limit 50; 
     status CLOSED; 
     mean_replacement_time 10000;
}

object fuse {
     name feeder_1_R3-12-47-1_fuse_15; 
     phases ABCN; 
     from feeder_1_R3-12-47-1_node_155; 
     to feeder_1_R3-12-47-1_node_156; 
     current_limit 150; 
     status CLOSED; 
     mean_replacement_time 10000;
}

object fuse {
     name feeder_1_R3-12-47-1_fuse_16; 
     phases ABCN; 
     from feeder_1_R3-12-47-1_node_166; 
     to feeder_1_R3-12-47-1_node_167; 
     current_limit 150; 
     status CLOSED; 
     mean_replacement_time 10000;
}

object fuse {
     name feeder_1_R3-12-47-1_fuse_17; 
     phases ABCN; 
     from feeder_1_R3-12-47-1_node_198; 
     to feeder_1_R3-12-47-1_node_199; 
     current_limit 150; 
     status CLOSED; 
     mean_replacement_time 10000;
}

object fuse {
     name feeder_1_R3-12-47-1_fuse_18; 
     phases ABCN; 
     from feeder_1_R3-12-47-1_node_212; 
     to feeder_1_R3-12-47-1_node_213; 
     current_limit 30; 
     status CLOSED; 
     mean_replacement_time 10000;
}

object fuse {
     name feeder_1_R3-12-47-1_fuse_19; 
     phases ABCN; 
     from feeder_1_R3-12-47-1_node_235; 
     to feeder_1_R3-12-47-1_node_237; 
     current_limit 15; 
     status CLOSED; 
     mean_replacement_time 10000;
}

object fuse {
     name feeder_1_R3-12-47-1_fuse_20; 
     phases ABCN; 
     from feeder_1_R3-12-47-1_node_239; 
     to feeder_1_R3-12-47-1_node_240; 
     current_limit 30; 
     status CLOSED; 
     mean_replacement_time 10000;
}

object fuse {
     name feeder_1_R3-12-47-1_fuse_21; 
     phases ABN; 
     from feeder_1_R3-12-47-1_node_248; 
     to feeder_1_R3-12-47-1_node_249; 
     current_limit 80; 
     status CLOSED; 
     mean_replacement_time 10000;
}

object fuse {
     name feeder_1_R3-12-47-1_fuse_22; 
     phases ABCN; 
     from feeder_1_R3-12-47-1_node_257; 
     to feeder_1_R3-12-47-1_node_258; 
     current_limit 100; 
     status CLOSED; 
     mean_replacement_time 10000;
}

object fuse {
     name feeder_1_R3-12-47-1_fuse_23; 
     phases ABCN; 
     from feeder_1_R3-12-47-1_node_265; 
     to feeder_1_R3-12-47-1_node_266; 
     current_limit 50; 
     status CLOSED; 
     mean_replacement_time 10000;
}

object fuse {
     name feeder_1_R3-12-47-1_fuse_24; 
     phases ACN; 
     from feeder_1_R3-12-47-1_node_281; 
     to feeder_1_R3-12-47-1_node_282; 
     current_limit 10; 
     status CLOSED; 
     mean_replacement_time 10000;
}

object fuse {
     name feeder_1_R3-12-47-1_fuse_25; 
     phases BCN; 
     from feeder_1_R3-12-47-1_node_287; 
     to feeder_1_R3-12-47-1_node_288; 
     current_limit 10; 
     status CLOSED; 
     mean_replacement_time 10000;
}

object fuse {
     name feeder_1_R3-12-47-1_fuse_26; 
     phases ABCN; 
     from feeder_1_R3-12-47-1_node_295; 
     to feeder_1_R3-12-47-1_node_296; 
     current_limit 10; 
     status CLOSED; 
     mean_replacement_time 10000;
}

object fuse {
     name feeder_1_R3-12-47-1_fuse_27; 
     phases ABCN; 
     from feeder_1_R3-12-47-1_node_303; 
     to feeder_1_R3-12-47-1_node_304; 
     current_limit 300; 
     status CLOSED; 
     mean_replacement_time 10000;
}

object fuse {
     name feeder_1_R3-12-47-1_fuse_28; 
     phases ABN; 
     from feeder_1_R3-12-47-1_node_318; 
     to feeder_1_R3-12-47-1_node_319; 
     current_limit 15; 
     status CLOSED; 
     mean_replacement_time 10000;
}

object fuse {
     name feeder_1_R3-12-47-1_fuse_29; 
     phases ABCN; 
     from feeder_1_R3-12-47-1_node_340; 
     to feeder_1_R3-12-47-1_node_341; 
     current_limit 18; 
     status CLOSED; 
     mean_replacement_time 10000;
}

object fuse {
     name feeder_1_R3-12-47-1_fuse_30; 
     phases ABCN; 
     from feeder_1_R3-12-47-1_node_342; 
     to feeder_1_R3-12-47-1_node_343; 
     current_limit 18; 
     status CLOSED; 
     mean_replacement_time 10000;
}

object fuse {
     name feeder_1_R3-12-47-1_fuse_31; 
     phases ABCN; 
     from feeder_1_R3-12-47-1_node_342; 
     to feeder_1_R3-12-47-1_node_344; 
     current_limit 18; 
     status CLOSED; 
     mean_replacement_time 10000;
}

object fuse {
     name feeder_1_R3-12-47-1_fuse_32; 
     phases ABCN; 
     from feeder_1_R3-12-47-1_node_347; 
     to feeder_1_R3-12-47-1_node_348; 
     current_limit 18; 
     status CLOSED; 
     mean_replacement_time 10000;
}

object fuse {
     name feeder_1_R3-12-47-1_fuse_33; 
     phases ABCN; 
     from feeder_1_R3-12-47-1_node_347; 
     to feeder_1_R3-12-47-1_node_349; 
     current_limit 18; 
     status CLOSED; 
     mean_replacement_time 10000;
}

object fuse {
     name feeder_1_R3-12-47-1_fuse_34; 
     phases ABCN; 
     from feeder_1_R3-12-47-1_node_353; 
     to feeder_1_R3-12-47-1_node_354; 
     current_limit 300; 
     status CLOSED; 
     mean_replacement_time 10000;
}

object fuse {
     name feeder_1_R3-12-47-1_fuse_35; 
     phases ABCN; 
     from feeder_1_R3-12-47-1_node_356; 
     to feeder_1_R3-12-47-1_node_357; 
     current_limit 300; 
     status CLOSED; 
     mean_replacement_time 10000;
}

object fuse {
     name feeder_1_R3-12-47-1_fuse_36; 
     phases ABCN; 
     from feeder_1_R3-12-47-1_node_362; 
     to feeder_1_R3-12-47-1_node_363; 
     current_limit 30; 
     status CLOSED; 
     mean_replacement_time 10000;
}

object fuse {
     name feeder_1_R3-12-47-1_fuse_37; 
     phases ABCN; 
     from feeder_1_R3-12-47-1_node_409; 
     to feeder_1_R3-12-47-1_node_410; 
     current_limit 125; 
     status CLOSED; 
     mean_replacement_time 10000;
}

object fuse {
     name feeder_1_R3-12-47-1_fuse_38; 
     phases ACN; 
     from feeder_1_R3-12-47-1_node_428; 
     to feeder_1_R3-12-47-1_node_429; 
     current_limit 20; 
     status CLOSED; 
     mean_replacement_time 10000;
}

object fuse {
     name feeder_1_R3-12-47-1_fuse_39; 
     phases ABCN; 
     from feeder_1_R3-12-47-1_node_432; 
     to feeder_1_R3-12-47-1_node_433; 
     current_limit 30; 
     status CLOSED; 
     mean_replacement_time 10000;
}

object fuse {
     name feeder_1_R3-12-47-1_fuse_40; 
     phases ABCN; 
     from feeder_1_R3-12-47-1_node_439; 
     to feeder_1_R3-12-47-1_node_440; 
     current_limit 80; 
     status CLOSED; 
     mean_replacement_time 10000;
}

object fuse {
     name feeder_1_R3-12-47-1_fuse_41; 
     phases ACN; 
     from feeder_1_R3-12-47-1_node_447; 
     to feeder_1_R3-12-47-1_node_448; 
     current_limit 30; 
     status CLOSED; 
     mean_replacement_time 10000;
}

object fuse {
     name feeder_1_R3-12-47-1_fuse_42; 
     phases ACN; 
     from feeder_1_R3-12-47-1_node_459; 
     to feeder_1_R3-12-47-1_node_460; 
     current_limit 40; 
     status CLOSED; 
     mean_replacement_time 10000;
}

object fuse {
     name feeder_1_R3-12-47-1_fuse_43; 
     phases ABCN; 
     from feeder_1_R3-12-47-1_node_393; 
     to feeder_1_R3-12-47-1_node_493; 
     current_limit 140; 
     status CLOSED; 
     mean_replacement_time 10000;
}

object fuse {
     name feeder_1_R3-12-47-1_fuse_44; 
     phases ABCN; 
     from feeder_1_R3-12-47-1_node_499; 
     to feeder_1_R3-12-47-1_node_500; 
     current_limit 150; 
     status CLOSED; 
     mean_replacement_time 10000;
}

object fuse {
     name feeder_1_R3-12-47-1_fuse_45; 
     phases ABCN; 
     from feeder_1_R3-12-47-1_node_513; 
     to feeder_1_R3-12-47-1_node_514; 
     current_limit 150; 
     status CLOSED; 
     mean_replacement_time 10000;
}

object fuse {
     name feeder_1_R3-12-47-1_fuse_46; 
     phases ABCN; 
     from feeder_1_R3-12-47-1_node_523; 
     to feeder_1_R3-12-47-1_node_525; 
     current_limit 30; 
     status CLOSED; 
     mean_replacement_time 10000;
}

object fuse {
     name feeder_1_R3-12-47-1_fuse_47; 
     phases ABN; 
     from feeder_1_R3-12-47-1_node_527; 
     to feeder_1_R3-12-47-1_node_528; 
     current_limit 30; 
     status CLOSED; 
     mean_replacement_time 10000;
}

object fuse {
     name feeder_1_R3-12-47-1_fuse_48; 
     phases ABCN; 
     from feeder_1_R3-12-47-1_node_530; 
     to feeder_1_R3-12-47-1_node_531; 
     current_limit 100; 
     status CLOSED; 
     mean_replacement_time 10000;
}

object fuse {
     name feeder_1_R3-12-47-1_fuse_49; 
     phases ABCN; 
     from feeder_1_R3-12-47-1_node_534; 
     to feeder_1_R3-12-47-1_node_535; 
     current_limit 30; 
     status CLOSED; 
     mean_replacement_time 10000;
}

object fuse {
     name feeder_1_R3-12-47-1_fuse_50; 
     phases ABCN; 
     from feeder_1_R3-12-47-1_node_537; 
     to feeder_1_R3-12-47-1_node_538; 
     current_limit 10; 
     status CLOSED; 
     mean_replacement_time 10000;
}

object fuse {
     name feeder_1_R3-12-47-1_fuse_51; 
     phases ABCN; 
     from feeder_1_R3-12-47-1_node_387; 
     to feeder_1_R3-12-47-1_node_542; 
     current_limit 150; 
     status CLOSED; 
     mean_replacement_time 10000;
}

object fuse {
     name feeder_1_R3-12-47-1_fuse_52; 
     phases ABCN; 
     from feeder_1_R3-12-47-1_node_545; 
     to feeder_1_R3-12-47-1_node_546; 
     current_limit 100; 
     status CLOSED; 
     mean_replacement_time 10000;
}

object fuse {
     name feeder_1_R3-12-47-1_fuse_53; 
     phases ABCN; 
     from feeder_1_R3-12-47-1_node_566; 
     to feeder_1_R3-12-47-1_node_569; 
     current_limit 80; 
     status CLOSED; 
     mean_replacement_time 10000;
}

object fuse {
     name feeder_1_R3-12-47-1_fuse_54; 
     phases ABCN; 
     from feeder_1_R3-12-47-1_node_574; 
     to feeder_1_R3-12-47-1_node_576; 
     current_limit 15; 
     status CLOSED; 
     mean_replacement_time 10000;
}

object fuse {
     name feeder_1_R3-12-47-1_fuse_55; 
     phases ABCN; 
     from feeder_1_R3-12-47-1_node_580; 
     to feeder_1_R3-12-47-1_node_581; 
     current_limit 150; 
     status CLOSED; 
     mean_replacement_time 10000;
}

object fuse {
     name feeder_1_R3-12-47-1_fuse_56; 
     phases ABCN; 
     from feeder_1_R3-12-47-1_node_586; 
     to feeder_1_R3-12-47-1_node_587; 
     current_limit 80; 
     status CLOSED; 
     mean_replacement_time 10000;
}

object fuse {
     name feeder_1_R3-12-47-1_fuse_57; 
     phases ABCN; 
     from feeder_1_R3-12-47-1_node_589; 
     to feeder_1_R3-12-47-1_node_590; 
     current_limit 150; 
     status CLOSED; 
     mean_replacement_time 10000;
}

object fuse {
     name feeder_1_R3-12-47-1_fuse_58; 
     phases ABCN; 
     from feeder_1_R3-12-47-1_node_596; 
     to feeder_1_R3-12-47-1_node_597; 
     current_limit 150; 
     status CLOSED; 
     mean_replacement_time 10000;
}

object fuse {
     name feeder_1_R3-12-47-1_fuse_59; 
     phases ABCN; 
     from feeder_1_R3-12-47-1_node_543; 
     to feeder_1_R3-12-47-1_node_611; 
     current_limit 10; 
     status CLOSED; 
     mean_replacement_time 10000;
}

object fuse {
     name feeder_1_R3-12-47-1_fuse_60; 
     phases ABCN; 
     from feeder_1_R3-12-47-1_node_614; 
     to feeder_1_R3-12-47-1_node_615; 
     current_limit 80; 
     status CLOSED; 
     mean_replacement_time 10000;
}

object fuse {
     name feeder_1_R3-12-47-1_fuse_61; 
     phases ABCN; 
     from feeder_1_R3-12-47-1_node_623; 
     to feeder_1_R3-12-47-1_node_632; 
     current_limit 150; 
     status CLOSED; 
     mean_replacement_time 10000;
}

// Line Configurations

object line_configuration {
     name f1_line_configuration_24;
     conductor_A f1_overhead_line_conductor_2;
     conductor_B f1_overhead_line_conductor_2;
     conductor_C f1_overhead_line_conductor_2;
     conductor_N f1_overhead_line_conductor_2;
     spacing f1_line_spacing_17;
}  

object line_configuration {
     name f1_line_configuration_25;
     conductor_A f1_overhead_line_conductor_2;
     conductor_B f1_overhead_line_conductor_2;
     conductor_N f1_overhead_line_conductor_2;
     spacing f1_line_spacing_18;
}  

object line_configuration {
     name f1_line_configuration_26;
     conductor_B f1_overhead_line_conductor_2;
     conductor_C f1_overhead_line_conductor_2;
     conductor_N f1_overhead_line_conductor_2;
     spacing f1_line_spacing_19;
}  

object line_configuration {
     name f1_line_configuration_27;
     conductor_A f1_underground_line_conductor_3;
     conductor_B f1_underground_line_conductor_3;
     conductor_C f1_underground_line_conductor_3;
     conductor_N f1_underground_line_conductor_3;
     spacing f1_line_spacing_17;
}  

object line_configuration {
     name f1_line_configuration_28;
     conductor_A f1_overhead_line_conductor_4;
     conductor_C f1_overhead_line_conductor_4;
     conductor_N f1_overhead_line_conductor_4;
     spacing f1_line_spacing_20;
}  

object line_configuration {
     name f1_line_configuration_29;
     conductor_A f1_underground_line_conductor_5;
     conductor_C f1_underground_line_conductor_5;
     conductor_N f1_underground_line_conductor_5;
     spacing f1_line_spacing_20;
}  

object line_configuration {
     name f1_line_configuration_30;
     conductor_B f1_underground_line_conductor_3;
     conductor_C f1_underground_line_conductor_3;
     conductor_N f1_underground_line_conductor_3;
     spacing f1_line_spacing_19;
}  

object line_configuration {
     name f1_line_configuration_31;
     conductor_A f1_underground_line_conductor_5;
     conductor_B f1_underground_line_conductor_5;
     conductor_C f1_underground_line_conductor_5;
     conductor_N f1_underground_line_conductor_5;
     spacing f1_line_spacing_17;
}  

object line_configuration {
     name f1_line_configuration_32;
     conductor_A f1_underground_line_conductor_3;
     conductor_C f1_underground_line_conductor_3;
     conductor_N f1_underground_line_conductor_3;
     spacing f1_line_spacing_20;
}  

object line_configuration {
     name f1_line_configuration_33;
     conductor_A f1_overhead_line_conductor_6;
     conductor_C f1_overhead_line_conductor_6;
     conductor_N f1_overhead_line_conductor_6;
     spacing f1_line_spacing_20;
}  

object line_configuration {
     name f1_line_configuration_34;
     conductor_A f1_overhead_line_conductor_4;
     conductor_N f1_overhead_line_conductor_4;
     spacing f1_line_spacing_21;
}  

object line_configuration {
     name f1_line_configuration_35;
     conductor_A f1_overhead_line_conductor_7;
     conductor_B f1_overhead_line_conductor_7;
     conductor_C f1_overhead_line_conductor_7;
     conductor_N f1_overhead_line_conductor_7;
     spacing f1_line_spacing_17;
}  

object line_configuration {
     name f1_line_configuration_36;
     conductor_A f1_overhead_line_conductor_4;
     conductor_B f1_overhead_line_conductor_4;
     conductor_C f1_overhead_line_conductor_4;
     conductor_N f1_overhead_line_conductor_4;
     spacing f1_line_spacing_17;
}  

object line_configuration {
     name f1_line_configuration_37;
     conductor_A f1_underground_line_conductor_8;
     conductor_B f1_underground_line_conductor_8;
     conductor_C f1_underground_line_conductor_8;
     conductor_N f1_underground_line_conductor_8;
     spacing f1_line_spacing_17;
}  

object line_configuration {
     name f1_line_configuration_38;
     conductor_B f1_underground_line_conductor_3;
     conductor_N f1_underground_line_conductor_3;
     spacing f1_line_spacing_22;
}  

object line_configuration {
     name f1_line_configuration_39;
     conductor_A f1_underground_line_conductor_3;
     conductor_N f1_underground_line_conductor_3;
     spacing f1_line_spacing_21;
}  

object line_configuration {
     name f1_line_configuration_40;
     conductor_A f1_underground_line_conductor_3;
     conductor_B f1_underground_line_conductor_3;
     conductor_N f1_underground_line_conductor_3;
     spacing f1_line_spacing_18;
}  

object line_configuration {
     name f1_line_configuration_41;
     conductor_C f1_underground_line_conductor_3;
     conductor_N f1_underground_line_conductor_3;
     spacing f1_line_spacing_23;
}  

object line_configuration {
     name f1_line_configuration_42;
     conductor_A f1_overhead_line_conductor_9;
     conductor_B f1_overhead_line_conductor_9;
     conductor_C f1_overhead_line_conductor_9;
     conductor_N f1_overhead_line_conductor_9;
     spacing f1_line_spacing_17;
}  

object line_configuration {
     name f1_line_configuration_43;
     conductor_B f1_overhead_line_conductor_10;
     conductor_N f1_overhead_line_conductor_10;
     spacing f1_line_spacing_22;
}  

object line_configuration {
     name f1_line_configuration_44;
     conductor_A f1_overhead_line_conductor_2;
     conductor_C f1_overhead_line_conductor_2;
     conductor_N f1_overhead_line_conductor_2;
     spacing f1_line_spacing_20;
}  

object line_configuration {
     name f1_line_configuration_45;
     conductor_A f1_underground_line_conductor_5;
     conductor_B f1_underground_line_conductor_5;
     conductor_N f1_underground_line_conductor_5;
     spacing f1_line_spacing_18;
}  

object line_configuration {
     name f1_line_configuration_46;
     conductor_B f1_overhead_line_conductor_4;
     conductor_C f1_overhead_line_conductor_4;
     conductor_N f1_overhead_line_conductor_4;
     spacing f1_line_spacing_19;
}  

object line_configuration {
     name f1_line_configuration_47;
     conductor_A f1_underground_line_conductor_11;
     conductor_B f1_underground_line_conductor_11;
     conductor_C f1_underground_line_conductor_11;
     conductor_N f1_underground_line_conductor_11;
     spacing f1_line_spacing_17;
}  

object line_configuration {
     name f1_line_configuration_48;
     conductor_A f1_underground_line_conductor_12;
     conductor_B f1_underground_line_conductor_12;
     conductor_C f1_underground_line_conductor_12;
     conductor_N f1_underground_line_conductor_12;
     spacing f1_line_spacing_17;
}  

object line_configuration {
     name f1_line_configuration_49;
     conductor_A f1_underground_line_conductor_13;
     conductor_B f1_underground_line_conductor_13;
     conductor_C f1_underground_line_conductor_13;
     conductor_N f1_underground_line_conductor_13;
     spacing f1_line_spacing_17;
}  

object line_configuration {
     name f1_line_configuration_50;
     conductor_A f1_underground_line_conductor_14;
     conductor_B f1_underground_line_conductor_14;
     conductor_C f1_underground_line_conductor_14;
     conductor_N f1_underground_line_conductor_14;
     spacing f1_line_spacing_17;
}  

object line_configuration {
     name f1_line_configuration_51;
     conductor_A f1_underground_line_conductor_14;
     conductor_B f1_underground_line_conductor_14;
     conductor_N f1_underground_line_conductor_14;
     spacing f1_line_spacing_18;
}  

object line_configuration {
     name f1_line_configuration_52;
     conductor_A f1_overhead_line_conductor_4;
     conductor_B f1_overhead_line_conductor_4;
     conductor_N f1_overhead_line_conductor_4;
     spacing f1_line_spacing_18;
}  

object line_configuration {
     name f1_line_configuration_53;
     conductor_A f1_overhead_line_conductor_10;
     conductor_B f1_overhead_line_conductor_10;
     conductor_C f1_overhead_line_conductor_10;
     conductor_N f1_overhead_line_conductor_10;
     spacing f1_line_spacing_17;
}  

object line_configuration {
     name f1_line_configuration_54;
     conductor_C f1_overhead_line_conductor_4;
     conductor_N f1_overhead_line_conductor_4;
     spacing f1_line_spacing_23;
}  

object line_configuration {
     name f1_line_configuration_55;
     conductor_C f1_overhead_line_conductor_10;
     conductor_N f1_overhead_line_conductor_10;
     spacing f1_line_spacing_23;
}  

object line_configuration {
     name f1_line_configuration_56;
     conductor_C f1_overhead_line_conductor_2;
     conductor_N f1_overhead_line_conductor_2;
     spacing f1_line_spacing_23;
}  

object line_configuration {
     name f1_line_configuration_57;
     conductor_A f1_underground_line_conductor_14;
     conductor_C f1_underground_line_conductor_14;
     conductor_N f1_underground_line_conductor_14;
     spacing f1_line_spacing_20;
}  

object line_configuration {
     name f1_line_configuration_58;
     conductor_A f1_underground_line_conductor_5;
     conductor_N f1_underground_line_conductor_5;
     spacing f1_line_spacing_21;
}  

object line_configuration {
     name f1_line_configuration_59;
     conductor_A f1_overhead_line_conductor_9;
     conductor_N f1_overhead_line_conductor_9;
     spacing f1_line_spacing_21;
}  

object line_configuration {
     name f1_line_configuration_60;
     conductor_A f1_overhead_line_conductor_6;
     conductor_B f1_overhead_line_conductor_6;
     conductor_C f1_overhead_line_conductor_6;
     conductor_N f1_overhead_line_conductor_6;
     spacing f1_line_spacing_17;
}  

object line_configuration {
     name f1_line_configuration_61;
     conductor_A f1_overhead_line_conductor_15;
     conductor_B f1_overhead_line_conductor_15;
     conductor_C f1_overhead_line_conductor_15;
     conductor_N f1_overhead_line_conductor_15;
     spacing f1_line_spacing_17;
}  

object line_configuration {
     name f1_line_configuration_62;
     conductor_B f1_underground_line_conductor_5;
     conductor_C f1_underground_line_conductor_5;
     conductor_N f1_underground_line_conductor_5;
     spacing f1_line_spacing_19;
}  

object line_configuration {
     name f1_line_configuration_63;
     conductor_A f1_underground_line_conductor_16;
     conductor_B f1_underground_line_conductor_16;
     conductor_C f1_underground_line_conductor_16;
     conductor_N f1_underground_line_conductor_16;
     spacing f1_line_spacing_17;
}  

object line_spacing {
     name f1_line_spacing_17;
     distance_AB 37.0 in;
     distance_BC 37.0 in;
     distance_AC 37.0 in;
     distance_AN 37.0 in;
     distance_BN 37.0 in;
     distance_CN 37.0 in;
}  

object line_spacing {
     name f1_line_spacing_18;
     distance_AB 37.0 in;
     distance_AN 37.0 in;
     distance_BN 37.0 in;
}  

object line_spacing {
     name f1_line_spacing_19;
     distance_BC 37.0 in;
     distance_BN 37.0 in;
     distance_CN 37.0 in;
}  

object line_spacing {
     name f1_line_spacing_20;
     distance_AC 37.0 in;
     distance_AN 37.0 in;
     distance_CN 37.0 in;
}  

object line_spacing {
     name f1_line_spacing_21;
     distance_AN 37.0 in;
}  

object line_spacing {
     name f1_line_spacing_22;
     distance_BN 37.0 in;
}  

object line_spacing {
     name f1_line_spacing_23;
     distance_CN 37.0 in;
}  

// Static Loads

object load {
     name feeder_1_R3-12-47-1_load_1; 
     parent feeder_1_R3-12-47-1_meter_1; 
     phases ABCN; 
     constant_power_A_real 113333.3*power_mag_1;
     constant_power_A_reac 70200.0*power_mag_1;
     constant_power_B_real 113333.3*power_mag_1;
     constant_power_B_reac 70200.0*power_mag_1;
     constant_power_C_real 113333.3*power_mag_1;
     constant_power_C_reac 70200.0*power_mag_1;
     nominal_voltage 7199.558; 
     load_class C; 
}  

object load {
     name feeder_1_R3-12-47-1_load_2; 
     parent feeder_1_R3-12-47-1_meter_2; 
     phases ABCN; 
     constant_power_A_real 23683.3*power_mag_1;
     constant_power_A_reac 14402.7*power_mag_1;
     constant_power_B_real 23683.3*power_mag_1;
     constant_power_B_reac 14402.7*power_mag_1;
     constant_power_C_real 23683.3*power_mag_1;
     constant_power_C_reac 14402.7*power_mag_1;
     nominal_voltage 7199.558; 
     load_class C; 
}  

object load {
     name feeder_1_R3-12-47-1_load_3; 
     parent feeder_1_R3-12-47-1_meter_3; 
     phases ABCN; 
     constant_power_A_real 5913.9*power_mag_1;
     constant_power_A_reac 3596.5*power_mag_1;
     constant_power_B_real 5913.9*power_mag_1;
     constant_power_B_reac 3596.5*power_mag_1;
     constant_power_C_real 5913.9*power_mag_1;
     constant_power_C_reac 3596.5*power_mag_1;
     nominal_voltage 7199.558; 
     load_class C; 
}  

object load {
     name feeder_1_R3-12-47-1_load_4; 
     parent feeder_1_R3-12-47-1_meter_4; 
     phases ABCN; 
     constant_power_A_real 5913.9*power_mag_1;
     constant_power_A_reac 3596.5*power_mag_1;
     constant_power_B_real 5913.9*power_mag_1;
     constant_power_B_reac 3596.5*power_mag_1;
     constant_power_C_real 5913.9*power_mag_1;
     constant_power_C_reac 3596.5*power_mag_1;
     nominal_voltage 7199.558; 
     load_class C; 
}  

object load {
     name feeder_1_R3-12-47-1_load_5; 
     parent feeder_1_R3-12-47-1_meter_5; 
     phases ABCN; 
     constant_power_A_real 5913.9*power_mag_1;
     constant_power_A_reac 3596.5*power_mag_1;
     constant_power_B_real 5913.9*power_mag_1;
     constant_power_B_reac 3596.5*power_mag_1;
     constant_power_C_real 5913.9*power_mag_1;
     constant_power_C_reac 3596.5*power_mag_1;
     nominal_voltage 7199.558; 
     load_class C; 
}  

object load {
     name feeder_1_R3-12-47-1_load_6; 
     parent feeder_1_R3-12-47-1_meter_6; 
     phases ABCN; 
     constant_power_A_real 27333.3*power_mag_1;
     constant_power_A_reac 16933.3*power_mag_1;
     constant_power_B_real 27333.3*power_mag_1;
     constant_power_B_reac 16933.3*power_mag_1;
     constant_power_C_real 27333.3*power_mag_1;
     constant_power_C_reac 16933.3*power_mag_1;
     nominal_voltage 7199.558; 
     load_class C; 
}  

object load {
     name feeder_1_R3-12-47-1_load_7; 
     parent feeder_1_R3-12-47-1_meter_7; 
     phases ABCN; 
     constant_power_A_real 134466.7*power_mag_1;
     constant_power_A_reac 83333.3*power_mag_1;
     constant_power_B_real 134466.7*power_mag_1;
     constant_power_B_reac 83333.3*power_mag_1;
     constant_power_C_real 134466.7*power_mag_1;
     constant_power_C_reac 83333.3*power_mag_1;
     nominal_voltage 7199.558; 
     load_class C; 
}  

object load {
     name feeder_1_R3-12-47-1_load_8; 
     parent feeder_1_R3-12-47-1_meter_8; 
     phases ABCN; 
     constant_power_A_real 23683.3*power_mag_1;
     constant_power_A_reac 14402.7*power_mag_1;
     constant_power_B_real 23683.3*power_mag_1;
     constant_power_B_reac 14402.7*power_mag_1;
     constant_power_C_real 23683.3*power_mag_1;
     constant_power_C_reac 14402.7*power_mag_1;
     nominal_voltage 7199.558; 
     load_class C; 
}  

object load {
     name feeder_1_R3-12-47-1_load_9; 
     parent feeder_1_R3-12-47-1_meter_9; 
     phases ABCN; 
     constant_power_A_real 11835.4*power_mag_1;
     constant_power_A_reac 7197.6*power_mag_1;
     constant_power_B_real 11835.4*power_mag_1;
     constant_power_B_reac 7197.6*power_mag_1;
     constant_power_C_real 11835.4*power_mag_1;
     constant_power_C_reac 7197.6*power_mag_1;
     nominal_voltage 7199.558; 
     load_class C; 
}  

object load {
     name feeder_1_R3-12-47-1_load_10; 
     parent feeder_1_R3-12-47-1_meter_10; 
     phases ABCN; 
     constant_power_A_real 17769.4*power_mag_1;
     constant_power_A_reac 10806.3*power_mag_1;
     constant_power_B_real 17769.4*power_mag_1;
     constant_power_B_reac 10806.3*power_mag_1;
     constant_power_C_real 17769.4*power_mag_1;
     constant_power_C_reac 10806.3*power_mag_1;
     nominal_voltage 7199.558; 
     load_class C; 
}  

object load {
     name feeder_1_R3-12-47-1_load_11; 
     parent feeder_1_R3-12-47-1_meter_11; 
     phases BCN; 
     constant_power_B_real 2956.9*power_mag_1;
     constant_power_B_reac 1798.2*power_mag_1;
     constant_power_C_real 2956.9*power_mag_1;
     constant_power_C_reac 1798.2*power_mag_1;
     nominal_voltage 7199.558; 
     load_class C; 
}  

object load {
     name feeder_1_R3-12-47-1_load_12; 
     parent feeder_1_R3-12-47-1_meter_12; 
     phases ACN; 
     constant_power_A_real 2956.9*power_mag_1;
     constant_power_A_reac 1798.2*power_mag_1;
     constant_power_C_real 2956.9*power_mag_1;
     constant_power_C_reac 1798.2*power_mag_1;
     nominal_voltage 7199.558; 
     load_class C; 
}  

object load {
     name feeder_1_R3-12-47-1_load_13; 
     parent feeder_1_R3-12-47-1_meter_13; 
     phases ABCN; 
     constant_power_A_real 23683.3*power_mag_1;
     constant_power_A_reac 14402.7*power_mag_1;
     constant_power_B_real 23683.3*power_mag_1;
     constant_power_B_reac 14402.7*power_mag_1;
     constant_power_C_real 23683.3*power_mag_1;
     constant_power_C_reac 14402.7*power_mag_1;
     nominal_voltage 7199.558; 
     load_class C; 
}  

object load {
     name feeder_1_R3-12-47-1_load_14; 
     parent feeder_1_R3-12-47-1_meter_14; 
     phases ABCN; 
     constant_power_A_real 5913.9*power_mag_1;
     constant_power_A_reac 3596.5*power_mag_1;
     constant_power_B_real 5913.9*power_mag_1;
     constant_power_B_reac 3596.5*power_mag_1;
     constant_power_C_real 5913.9*power_mag_1;
     constant_power_C_reac 3596.5*power_mag_1;
     nominal_voltage 7199.558; 
     load_class C; 
}  

object load {
     name feeder_1_R3-12-47-1_load_15; 
     parent feeder_1_R3-12-47-1_meter_15; 
     phases ABCN; 
     constant_power_A_real 17769.4*power_mag_1;
     constant_power_A_reac 10806.3*power_mag_1;
     constant_power_B_real 17769.4*power_mag_1;
     constant_power_B_reac 10806.3*power_mag_1;
     constant_power_C_real 17769.4*power_mag_1;
     constant_power_C_reac 10806.3*power_mag_1;
     nominal_voltage 7199.558; 
     load_class C; 
}  

object load {
     name feeder_1_R3-12-47-1_load_16; 
     parent feeder_1_R3-12-47-1_meter_16; 
     phases ABCN; 
     constant_power_A_real 11835.4*power_mag_1;
     constant_power_A_reac 7197.6*power_mag_1;
     constant_power_B_real 11835.4*power_mag_1;
     constant_power_B_reac 7197.6*power_mag_1;
     constant_power_C_real 11835.4*power_mag_1;
     constant_power_C_reac 7197.6*power_mag_1;
     nominal_voltage 7199.558; 
     load_class C; 
}  

object load {
     name feeder_1_R3-12-47-1_load_17; 
     parent feeder_1_R3-12-47-1_meter_17; 
     phases ABCN; 
     constant_power_A_real 17769.4*power_mag_1;
     constant_power_A_reac 10806.3*power_mag_1;
     constant_power_B_real 17769.4*power_mag_1;
     constant_power_B_reac 10806.3*power_mag_1;
     constant_power_C_real 17769.4*power_mag_1;
     constant_power_C_reac 10806.3*power_mag_1;
     nominal_voltage 7199.558; 
     load_class C; 
}  

object load {
     name feeder_1_R3-12-47-1_load_18; 
     parent feeder_1_R3-12-47-1_meter_18; 
     phases ABCN; 
     constant_power_A_real 11835.4*power_mag_1;
     constant_power_A_reac 7197.6*power_mag_1;
     constant_power_B_real 11835.4*power_mag_1;
     constant_power_B_reac 7197.6*power_mag_1;
     constant_power_C_real 11835.4*power_mag_1;
     constant_power_C_reac 7197.6*power_mag_1;
     nominal_voltage 7199.558; 
     load_class C; 
}  

object load {
     name feeder_1_R3-12-47-1_load_19; 
     parent feeder_1_R3-12-47-1_meter_19; 
     phases ABCN; 
     constant_power_A_real 23683.3*power_mag_1;
     constant_power_A_reac 14402.7*power_mag_1;
     constant_power_B_real 23683.3*power_mag_1;
     constant_power_B_reac 14402.7*power_mag_1;
     constant_power_C_real 23683.3*power_mag_1;
     constant_power_C_reac 14402.7*power_mag_1;
     nominal_voltage 7199.558; 
     load_class C; 
}  

object load {
     name feeder_1_R3-12-47-1_load_20; 
     parent feeder_1_R3-12-47-1_meter_20; 
     phases ABCN; 
     constant_power_A_real 5913.9*power_mag_1;
     constant_power_A_reac 3596.5*power_mag_1;
     constant_power_B_real 5913.9*power_mag_1;
     constant_power_B_reac 3596.5*power_mag_1;
     constant_power_C_real 5913.9*power_mag_1;
     constant_power_C_reac 3596.5*power_mag_1;
     nominal_voltage 7199.558; 
     load_class C; 
}  

object load {
     name feeder_1_R3-12-47-1_load_21; 
     parent feeder_1_R3-12-47-1_meter_21; 
     phases ABN; 
     constant_power_A_real 2956.9*power_mag_1;
     constant_power_A_reac 1798.2*power_mag_1;
     constant_power_B_real 2956.9*power_mag_1;
     constant_power_B_reac 1798.2*power_mag_1;
     nominal_voltage 7199.558; 
     load_class C; 
}  

object load {
     name feeder_1_R3-12-47-1_load_22; 
     parent feeder_1_R3-12-47-1_meter_22; 
     phases ABCN; 
     constant_power_A_real 1169.7*power_mag_1;
     constant_power_A_reac 711.4*power_mag_1;
     constant_power_B_real   0.0*power_mag_1;
     constant_power_B_reac   0.0*power_mag_1;
     constant_power_C_real 1169.7*power_mag_1;
     constant_power_C_reac 711.4*power_mag_1;
     nominal_voltage 7199.558; 
     load_class C; 
}  

object load {
     name feeder_1_R3-12-47-1_load_23; 
     parent feeder_1_R3-12-47-1_meter_23; 
     phases ABCN; 
     constant_power_A_real 5913.9*power_mag_1;
     constant_power_A_reac 3596.5*power_mag_1;
     constant_power_B_real 5913.9*power_mag_1;
     constant_power_B_reac 3596.5*power_mag_1;
     constant_power_C_real 5913.9*power_mag_1;
     constant_power_C_reac 3596.5*power_mag_1;
     nominal_voltage 7199.558; 
     load_class C; 
}  

object load {
     name feeder_1_R3-12-47-1_load_24; 
     parent feeder_1_R3-12-47-1_meter_24; 
     phases ABCN; 
     constant_power_A_real 1169.7*power_mag_1;
     constant_power_A_reac 711.4*power_mag_1;
     constant_power_B_real 1169.7*power_mag_1;
     constant_power_B_reac 711.4*power_mag_1;
     constant_power_C_real 1169.7*power_mag_1;
     constant_power_C_reac 711.4*power_mag_1;
     nominal_voltage 7199.558; 
     load_class C; 
}  

object load {
     name feeder_1_R3-12-47-1_load_25; 
     parent feeder_1_R3-12-47-1_meter_25; 
     phases ABCN; 
     constant_power_A_real   0.0*power_mag_1;
     constant_power_A_reac   0.0*power_mag_1;
     constant_power_B_real 11835.4*power_mag_1;
     constant_power_B_reac 7197.6*power_mag_1;
     constant_power_C_real 11835.4*power_mag_1;
     constant_power_C_reac 7197.6*power_mag_1;
     nominal_voltage 7199.558; 
     load_class C; 
}  

object load {
     name feeder_1_R3-12-47-1_load_26; 
     parent feeder_1_R3-12-47-1_meter_26; 
     phases ABCN; 
     constant_power_A_real 22666.7*power_mag_1;
     constant_power_A_reac 14066.7*power_mag_1;
     constant_power_B_real 22666.7*power_mag_1;
     constant_power_B_reac 14066.7*power_mag_1;
     constant_power_C_real 22666.7*power_mag_1;
     constant_power_C_reac 14066.7*power_mag_1;
     nominal_voltage 7199.558; 
     load_class C; 
}  

object load {
     name feeder_1_R3-12-47-1_load_27; 
     parent feeder_1_R3-12-47-1_meter_27; 
     phases ACN; 
     constant_power_A_real 2956.9*power_mag_1;
     constant_power_A_reac 1798.2*power_mag_1;
     constant_power_C_real 2956.9*power_mag_1;
     constant_power_C_reac 1798.2*power_mag_1;
     nominal_voltage 7199.558; 
     load_class C; 
}  

object load {
     name feeder_1_R3-12-47-1_load_28; 
     parent feeder_1_R3-12-47-1_meter_28; 
     phases ABCN; 
     constant_power_A_real 5913.9*power_mag_1;
     constant_power_A_reac 3596.5*power_mag_1;
     constant_power_B_real 5913.9*power_mag_1;
     constant_power_B_reac 3596.5*power_mag_1;
     constant_power_C_real 5913.9*power_mag_1;
     constant_power_C_reac 3596.5*power_mag_1;
     nominal_voltage 7199.558; 
     load_class C; 
}  

object load {
     name feeder_1_R3-12-47-1_load_29; 
     parent feeder_1_R3-12-47-1_meter_29; 
     phases ABCN; 
     constant_power_A_real 17769.4*power_mag_1;
     constant_power_A_reac 10806.3*power_mag_1;
     constant_power_B_real 17769.4*power_mag_1;
     constant_power_B_reac 10806.3*power_mag_1;
     constant_power_C_real 17769.4*power_mag_1;
     constant_power_C_reac 10806.3*power_mag_1;
     nominal_voltage 7199.558; 
     load_class C; 
}  

object load {
     name feeder_1_R3-12-47-1_load_30; 
     parent feeder_1_R3-12-47-1_meter_30; 
     phases ABCN; 
     constant_power_A_real 11835.4*power_mag_1;
     constant_power_A_reac 7197.6*power_mag_1;
     constant_power_B_real 11835.4*power_mag_1;
     constant_power_B_reac 7197.6*power_mag_1;
     constant_power_C_real 11835.4*power_mag_1;
     constant_power_C_reac 7197.6*power_mag_1;
     nominal_voltage 7199.558; 
     load_class C; 
}  

object load {
     name feeder_1_R3-12-47-1_load_31; 
     parent feeder_1_R3-12-47-1_meter_31; 
     phases ABCN; 
     constant_power_A_real 5913.9*power_mag_1;
     constant_power_A_reac 3596.5*power_mag_1;
     constant_power_B_real 5913.9*power_mag_1;
     constant_power_B_reac 3596.5*power_mag_1;
     constant_power_C_real 5913.9*power_mag_1;
     constant_power_C_reac 3596.5*power_mag_1;
     nominal_voltage 7199.558; 
     load_class C; 
}  

object load {
     name feeder_1_R3-12-47-1_load_32; 
     parent feeder_1_R3-12-47-1_meter_32; 
     phases ABCN; 
     constant_power_A_real 11835.4*power_mag_1;
     constant_power_A_reac 7197.6*power_mag_1;
     constant_power_B_real 11835.4*power_mag_1;
     constant_power_B_reac 7197.6*power_mag_1;
     constant_power_C_real 11835.4*power_mag_1;
     constant_power_C_reac 7197.6*power_mag_1;
     nominal_voltage 7199.558; 
     load_class C; 
}  

object load {
     name feeder_1_R3-12-47-1_load_33; 
     parent feeder_1_R3-12-47-1_meter_33; 
     phases ABN; 
     constant_power_A_real 2956.9*power_mag_1;
     constant_power_A_reac 1798.2*power_mag_1;
     constant_power_B_real 2956.9*power_mag_1;
     constant_power_B_reac 1798.2*power_mag_1;
     nominal_voltage 7199.558; 
     load_class C; 
}  

object load {
     name feeder_1_R3-12-47-1_load_34; 
     parent feeder_1_R3-12-47-1_meter_34; 
     phases ABCN; 
     constant_power_A_real 5913.9*power_mag_1;
     constant_power_A_reac 3596.5*power_mag_1;
     constant_power_B_real 5913.9*power_mag_1;
     constant_power_B_reac 3596.5*power_mag_1;
     constant_power_C_real 5913.9*power_mag_1;
     constant_power_C_reac 3596.5*power_mag_1;
     nominal_voltage 7199.558; 
     load_class C; 
}  

object load {
     name feeder_1_R3-12-47-1_load_35; 
     parent feeder_1_R3-12-47-1_meter_35; 
     phases ABCN; 
     constant_power_A_real 5913.9*power_mag_1;
     constant_power_A_reac 3596.5*power_mag_1;
     constant_power_B_real 5913.9*power_mag_1;
     constant_power_B_reac 3596.5*power_mag_1;
     constant_power_C_real 5913.9*power_mag_1;
     constant_power_C_reac 3596.5*power_mag_1;
     nominal_voltage 7199.558; 
     load_class C; 
}  

object load {
     name feeder_1_R3-12-47-1_load_36; 
     parent feeder_1_R3-12-47-1_meter_36; 
     phases ABCN; 
     constant_power_A_real 4731.7*power_mag_1;
     constant_power_A_reac 2877.5*power_mag_1;
     constant_power_B_real 4731.7*power_mag_1;
     constant_power_B_reac 2877.5*power_mag_1;
     constant_power_C_real 4731.7*power_mag_1;
     constant_power_C_reac 2877.5*power_mag_1;
     nominal_voltage 7199.558; 
     load_class C; 
}  

object load {
     name feeder_1_R3-12-47-1_load_37; 
     parent feeder_1_R3-12-47-1_meter_37; 
     phases ABCN; 
     constant_power_A_real 11835.4*power_mag_1;
     constant_power_A_reac 7197.6*power_mag_1;
     constant_power_B_real 11835.4*power_mag_1;
     constant_power_B_reac 7197.6*power_mag_1;
     constant_power_C_real 11835.4*power_mag_1;
     constant_power_C_reac 7197.6*power_mag_1;
     nominal_voltage 7199.558; 
     load_class C; 
}  

object load {
     name feeder_1_R3-12-47-1_load_38; 
     parent feeder_1_R3-12-47-1_meter_38; 
     phases ABCN; 
     constant_power_A_real 2956.9*power_mag_1;
     constant_power_A_reac 1798.2*power_mag_1;
     constant_power_B_real 2956.9*power_mag_1;
     constant_power_B_reac 1798.2*power_mag_1;
     constant_power_C_real   0.0*power_mag_1;
     constant_power_C_reac   0.0*power_mag_1;
     nominal_voltage 7199.558; 
     load_class C; 
}  

object load {
     name feeder_1_R3-12-47-1_load_39; 
     parent feeder_1_R3-12-47-1_meter_39; 
     phases ABCN; 
     constant_power_A_real 3561.9*power_mag_1;
     constant_power_A_reac 2166.2*power_mag_1;
     constant_power_B_real 3561.9*power_mag_1;
     constant_power_B_reac 2166.2*power_mag_1;
     constant_power_C_real 3561.9*power_mag_1;
     constant_power_C_reac 2166.2*power_mag_1;
     nominal_voltage 7199.558; 
     load_class C; 
}  

object load {
     name feeder_1_R3-12-47-1_load_40; 
     parent feeder_1_R3-12-47-1_meter_40; 
     phases ABCN; 
     constant_power_A_real 6666.7*power_mag_1;
     constant_power_A_reac 4133.3*power_mag_1;
     constant_power_B_real 6666.7*power_mag_1;
     constant_power_B_reac 4133.3*power_mag_1;
     constant_power_C_real 6666.7*power_mag_1;
     constant_power_C_reac 4133.3*power_mag_1;
     nominal_voltage 7199.558; 
     load_class C; 
}  

object load {
     name feeder_1_R3-12-47-1_load_41; 
     parent feeder_1_R3-12-47-1_meter_41; 
     phases ABCN; 
     constant_power_A_real   0.0*power_mag_1;
     constant_power_A_reac   0.0*power_mag_1;
     constant_power_B_real 4435.4*power_mag_1;
     constant_power_B_reac 2697.3*power_mag_1;
     constant_power_C_real 4435.4*power_mag_1;
     constant_power_C_reac 2697.3*power_mag_1;
     nominal_voltage 7199.558; 
     load_class C; 
}  

object load {
     name feeder_1_R3-12-47-1_load_42; 
     parent feeder_1_R3-12-47-1_meter_42; 
     phases ABCN; 
     constant_power_A_real 1787.2*power_mag_1;
     constant_power_A_reac 1086.9*power_mag_1;
     constant_power_B_real   0.0*power_mag_1;
     constant_power_B_reac   0.0*power_mag_1;
     constant_power_C_real 1787.2*power_mag_1;
     constant_power_C_reac 1086.9*power_mag_1;
     nominal_voltage 7199.558; 
     load_class C; 
}  

object load {
     name feeder_1_R3-12-47-1_load_43; 
     parent feeder_1_R3-12-47-1_meter_43; 
     phases ABCN; 
     constant_power_A_real 23683.3*power_mag_1;
     constant_power_A_reac 14402.7*power_mag_1;
     constant_power_B_real 23683.3*power_mag_1;
     constant_power_B_reac 14402.7*power_mag_1;
     constant_power_C_real 23683.3*power_mag_1;
     constant_power_C_reac 14402.7*power_mag_1;
     nominal_voltage 7199.558; 
     load_class C; 
}  

object load {
     name feeder_1_R3-12-47-1_load_44; 
     parent feeder_1_R3-12-47-1_meter_44; 
     phases ABCN; 
     constant_power_A_real 23683.3*power_mag_1;
     constant_power_A_reac 14402.7*power_mag_1;
     constant_power_B_real 23683.3*power_mag_1;
     constant_power_B_reac 14402.7*power_mag_1;
     constant_power_C_real 23683.3*power_mag_1;
     constant_power_C_reac 14402.7*power_mag_1;
     nominal_voltage 7199.558; 
     load_class C; 
}  

object load {
     name feeder_1_R3-12-47-1_load_45; 
     parent feeder_1_R3-12-47-1_meter_45; 
     phases ABCN; 
     constant_power_A_real 11800.0*power_mag_1;
     constant_power_A_reac 7266.7*power_mag_1;
     constant_power_B_real 11800.0*power_mag_1;
     constant_power_B_reac 7266.7*power_mag_1;
     constant_power_C_real 11800.0*power_mag_1;
     constant_power_C_reac 7266.7*power_mag_1;
     nominal_voltage 7199.558; 
     load_class C; 
}  

object load {
     name feeder_1_R3-12-47-1_load_46; 
     parent feeder_1_R3-12-47-1_meter_46; 
     phases ABCN; 
     constant_power_A_real 1169.7*power_mag_1;
     constant_power_A_reac 711.4*power_mag_1;
     constant_power_B_real   0.0*power_mag_1;
     constant_power_B_reac   0.0*power_mag_1;
     constant_power_C_real 1169.7*power_mag_1;
     constant_power_C_reac 711.4*power_mag_1;
     nominal_voltage 7199.558; 
     load_class C; 
}  

object load {
     name feeder_1_R3-12-47-1_load_47; 
     parent feeder_1_R3-12-47-1_meter_47; 
     phases ABCN; 
     constant_power_A_real 17769.4*power_mag_1;
     constant_power_A_reac 10806.3*power_mag_1;
     constant_power_B_real 17769.4*power_mag_1;
     constant_power_B_reac 10806.3*power_mag_1;
     constant_power_C_real 17769.4*power_mag_1;
     constant_power_C_reac 10806.3*power_mag_1;
     nominal_voltage 7199.558; 
     load_class C; 
}  

object load {
     name feeder_1_R3-12-47-1_load_48; 
     parent feeder_1_R3-12-47-1_meter_48; 
     phases ABCN; 
     constant_power_A_real 11835.4*power_mag_1;
     constant_power_A_reac 7197.6*power_mag_1;
     constant_power_B_real 11835.4*power_mag_1;
     constant_power_B_reac 7197.6*power_mag_1;
     constant_power_C_real 11835.4*power_mag_1;
     constant_power_C_reac 7197.6*power_mag_1;
     nominal_voltage 7199.558; 
     load_class C; 
}  

object load {
     name feeder_1_R3-12-47-1_load_49; 
     parent feeder_1_R3-12-47-1_meter_49; 
     phases ABCN; 
     constant_power_A_real 23683.3*power_mag_1;
     constant_power_A_reac 14402.7*power_mag_1;
     constant_power_B_real 23683.3*power_mag_1;
     constant_power_B_reac 14402.7*power_mag_1;
     constant_power_C_real 23683.3*power_mag_1;
     constant_power_C_reac 14402.7*power_mag_1;
     nominal_voltage 7199.558; 
     load_class C; 
}  

object load {
     name feeder_1_R3-12-47-1_load_50; 
     parent feeder_1_R3-12-47-1_meter_50; 
     phases ABCN; 
     constant_power_A_real 11835.4*power_mag_1;
     constant_power_A_reac 7197.6*power_mag_1;
     constant_power_B_real 11835.4*power_mag_1;
     constant_power_B_reac 7197.6*power_mag_1;
     constant_power_C_real 11835.4*power_mag_1;
     constant_power_C_reac 7197.6*power_mag_1;
     nominal_voltage 7199.558; 
     load_class C; 
}  

object load {
     name feeder_1_R3-12-47-1_load_51; 
     parent feeder_1_R3-12-47-1_meter_51; 
     phases ABCN; 
     constant_power_A_real 11835.4*power_mag_1;
     constant_power_A_reac 7197.6*power_mag_1;
     constant_power_B_real 11835.4*power_mag_1;
     constant_power_B_reac 7197.6*power_mag_1;
     constant_power_C_real 11835.4*power_mag_1;
     constant_power_C_reac 7197.6*power_mag_1;
     nominal_voltage 7199.558; 
     load_class C; 
}  

object load {
     name feeder_1_R3-12-47-1_load_52; 
     parent feeder_1_R3-12-47-1_meter_52; 
     phases ABCN; 
     constant_power_A_real 5913.9*power_mag_1;
     constant_power_A_reac 3596.5*power_mag_1;
     constant_power_B_real 5913.9*power_mag_1;
     constant_power_B_reac 3596.5*power_mag_1;
     constant_power_C_real 5913.9*power_mag_1;
     constant_power_C_reac 3596.5*power_mag_1;
     nominal_voltage 7199.558; 
     load_class C; 
}  

object load {
     name feeder_1_R3-12-47-1_load_53; 
     parent feeder_1_R3-12-47-1_meter_53; 
     phases ABCN; 
     constant_power_A_real 64866.7*power_mag_1;
     constant_power_A_reac 40200.0*power_mag_1;
     constant_power_B_real 64866.7*power_mag_1;
     constant_power_B_reac 40200.0*power_mag_1;
     constant_power_C_real 64866.7*power_mag_1;
     constant_power_C_reac 40200.0*power_mag_1;
     nominal_voltage 7199.558; 
     load_class C; 
}  

object load {
     name feeder_1_R3-12-47-1_load_54; 
     parent feeder_1_R3-12-47-1_meter_54; 
     phases ABCN; 
     constant_power_A_real 5125.7*power_mag_1;
     constant_power_A_reac 3117.2*power_mag_1;
     constant_power_B_real 5125.7*power_mag_1;
     constant_power_B_reac 3117.2*power_mag_1;
     constant_power_C_real 5125.7*power_mag_1;
     constant_power_C_reac 3117.2*power_mag_1;
     nominal_voltage 7199.558; 
     load_class C; 
}  

object load {
     name feeder_1_R3-12-47-1_load_55; 
     parent feeder_1_R3-12-47-1_meter_55; 
     phases ABCN; 
     constant_power_A_real 5913.9*power_mag_1;
     constant_power_A_reac 3596.5*power_mag_1;
     constant_power_B_real 5913.9*power_mag_1;
     constant_power_B_reac 3596.5*power_mag_1;
     constant_power_C_real 5913.9*power_mag_1;
     constant_power_C_reac 3596.5*power_mag_1;
     nominal_voltage 7199.558; 
     load_class C; 
}  

object load {
     name feeder_1_R3-12-47-1_load_56; 
     parent feeder_1_R3-12-47-1_meter_56; 
     phases ABCN; 
     constant_power_A_real 17769.4*power_mag_1;
     constant_power_A_reac 10806.3*power_mag_1;
     constant_power_B_real 17769.4*power_mag_1;
     constant_power_B_reac 10806.3*power_mag_1;
...