2009UseCases/UseCases_100perc/UseCases_100perc_2.glm
// Support file for the D.O.E. Modern Grid Use Test Cases
//   As this is a support file, it will not run on its own but
//   will be "included" into a larger system
//   Please see file named UseCases_100perc_1.glm to run the entire model

// Capacitors

object capacitor {
     name feeder_2_R3-12-47-1_cap_1; 
     phases ABCN; 
     pt_phase ABC;
     parent feeder_2_R3-12-47-1_node_238; 
     phases_connected ABC; 
     control VAR;
     VAr_set_high 200000;
     VAr_set_low 50000;
     remote_sense feeder_2_R3-12-47-1_ol_109;
     capacitor_A 0.4 MVAr;
     capacitor_B 0.4 MVAr;
     capacitor_C 0.4 MVAr;
     control_level INDIVIDUAL; 
     switchA OPEN; 
     switchB OPEN; 
     switchC OPEN; 
     time_delay 60;
     dwell_time 300;
     cap_nominal_voltage 7200; 
     nominal_voltage 7199.558; 
}

// Fuses

object fuse {
     name feeder_2_R3-12-47-1_fuse_1; 
     phases ABCN; 
     from feeder_2_R3-12-47-1_node_6; 
     to feeder_2_R3-12-47-1_node_14; 
     current_limit 150; 
     status CLOSED; 
     mean_replacement_time 10000;
}

object fuse {
     name feeder_2_R3-12-47-1_fuse_2; 
     phases ABCN; 
     from feeder_2_R3-12-47-1_node_16; 
     to feeder_2_R3-12-47-1_node_19; 
     current_limit 80; 
     status CLOSED; 
     mean_replacement_time 10000;
}

object fuse {
     name feeder_2_R3-12-47-1_fuse_3; 
     phases ABCN; 
     from feeder_2_R3-12-47-1_node_25; 
     to feeder_2_R3-12-47-1_node_26; 
     current_limit 30; 
     status CLOSED; 
     mean_replacement_time 10000;
}

object fuse {
     name feeder_2_R3-12-47-1_fuse_4; 
     phases ABCN; 
     from feeder_2_R3-12-47-1_node_38; 
     to feeder_2_R3-12-47-1_node_39; 
     current_limit 80; 
     status CLOSED; 
     mean_replacement_time 10000;
}

object fuse {
     name feeder_2_R3-12-47-1_fuse_5; 
     phases ABCN; 
     from feeder_2_R3-12-47-1_node_53; 
     to feeder_2_R3-12-47-1_node_54; 
     current_limit 80; 
     status CLOSED; 
     mean_replacement_time 10000;
}

object fuse {
     name feeder_2_R3-12-47-1_fuse_6; 
     phases ABCN; 
     from feeder_2_R3-12-47-1_node_69; 
     to feeder_2_R3-12-47-1_node_70; 
     current_limit 150; 
     status CLOSED; 
     mean_replacement_time 10000;
}

object fuse {
     name feeder_2_R3-12-47-1_fuse_7; 
     phases ABN; 
     from feeder_2_R3-12-47-1_node_92; 
     to feeder_2_R3-12-47-1_node_93; 
     current_limit 30; 
     status CLOSED; 
     mean_replacement_time 10000;
}

object fuse {
     name feeder_2_R3-12-47-1_fuse_8; 
     phases ABN; 
     from feeder_2_R3-12-47-1_node_98; 
     to feeder_2_R3-12-47-1_node_99; 
     current_limit 30; 
     status CLOSED; 
     mean_replacement_time 10000;
}

object fuse {
     name feeder_2_R3-12-47-1_fuse_9; 
     phases ABCN; 
     from feeder_2_R3-12-47-1_node_103; 
     to feeder_2_R3-12-47-1_node_104; 
     current_limit 30; 
     status CLOSED; 
     mean_replacement_time 10000;
}

object fuse {
     name feeder_2_R3-12-47-1_fuse_10; 
     phases ABCN; 
     from feeder_2_R3-12-47-1_node_112; 
     to feeder_2_R3-12-47-1_node_113; 
     current_limit 100; 
     status CLOSED; 
     mean_replacement_time 10000;
}

object fuse {
     name feeder_2_R3-12-47-1_fuse_11; 
     phases ABCN; 
     from feeder_2_R3-12-47-1_node_122; 
     to feeder_2_R3-12-47-1_node_123; 
     current_limit 100; 
     status CLOSED; 
     mean_replacement_time 10000;
}

object fuse {
     name feeder_2_R3-12-47-1_fuse_12; 
     phases ABCN; 
     from feeder_2_R3-12-47-1_node_126; 
     to feeder_2_R3-12-47-1_node_127; 
     current_limit 75; 
     status CLOSED; 
     mean_replacement_time 10000;
}

object fuse {
     name feeder_2_R3-12-47-1_fuse_13; 
     phases ABCN; 
     from feeder_2_R3-12-47-1_node_129; 
     to feeder_2_R3-12-47-1_node_130; 
     current_limit 20; 
     status CLOSED; 
     mean_replacement_time 10000;
}

object fuse {
     name feeder_2_R3-12-47-1_fuse_14; 
     phases ABCN; 
     from feeder_2_R3-12-47-1_node_153; 
     to feeder_2_R3-12-47-1_node_154; 
     current_limit 50; 
     status CLOSED; 
     mean_replacement_time 10000;
}

object fuse {
     name feeder_2_R3-12-47-1_fuse_15; 
     phases ABCN; 
     from feeder_2_R3-12-47-1_node_155; 
     to feeder_2_R3-12-47-1_node_156; 
     current_limit 150; 
     status CLOSED; 
     mean_replacement_time 10000;
}

object fuse {
     name feeder_2_R3-12-47-1_fuse_16; 
     phases ABCN; 
     from feeder_2_R3-12-47-1_node_166; 
     to feeder_2_R3-12-47-1_node_167; 
     current_limit 150; 
     status CLOSED; 
     mean_replacement_time 10000;
}

object fuse {
     name feeder_2_R3-12-47-1_fuse_17; 
     phases ABCN; 
     from feeder_2_R3-12-47-1_node_198; 
     to feeder_2_R3-12-47-1_node_199; 
     current_limit 150; 
     status CLOSED; 
     mean_replacement_time 10000;
}

object fuse {
     name feeder_2_R3-12-47-1_fuse_18; 
     phases ABCN; 
     from feeder_2_R3-12-47-1_node_212; 
     to feeder_2_R3-12-47-1_node_213; 
     current_limit 30; 
     status CLOSED; 
     mean_replacement_time 10000;
}

object fuse {
     name feeder_2_R3-12-47-1_fuse_19; 
     phases ABCN; 
     from feeder_2_R3-12-47-1_node_235; 
     to feeder_2_R3-12-47-1_node_237; 
     current_limit 15; 
     status CLOSED; 
     mean_replacement_time 10000;
}

object fuse {
     name feeder_2_R3-12-47-1_fuse_20; 
     phases ABCN; 
     from feeder_2_R3-12-47-1_node_239; 
     to feeder_2_R3-12-47-1_node_240; 
     current_limit 30; 
     status CLOSED; 
     mean_replacement_time 10000;
}

object fuse {
     name feeder_2_R3-12-47-1_fuse_21; 
     phases ABN; 
     from feeder_2_R3-12-47-1_node_248; 
     to feeder_2_R3-12-47-1_node_249; 
     current_limit 80; 
     status CLOSED; 
     mean_replacement_time 10000;
}

object fuse {
     name feeder_2_R3-12-47-1_fuse_22; 
     phases ABCN; 
     from feeder_2_R3-12-47-1_node_257; 
     to feeder_2_R3-12-47-1_node_258; 
     current_limit 100; 
     status CLOSED; 
     mean_replacement_time 10000;
}

object fuse {
     name feeder_2_R3-12-47-1_fuse_23; 
     phases ABCN; 
     from feeder_2_R3-12-47-1_node_265; 
     to feeder_2_R3-12-47-1_node_266; 
     current_limit 50; 
     status CLOSED; 
     mean_replacement_time 10000;
}

object fuse {
     name feeder_2_R3-12-47-1_fuse_24; 
     phases ACN; 
     from feeder_2_R3-12-47-1_node_281; 
     to feeder_2_R3-12-47-1_node_282; 
     current_limit 10; 
     status CLOSED; 
     mean_replacement_time 10000;
}

object fuse {
     name feeder_2_R3-12-47-1_fuse_25; 
     phases BCN; 
     from feeder_2_R3-12-47-1_node_287; 
     to feeder_2_R3-12-47-1_node_288; 
     current_limit 10; 
     status CLOSED; 
     mean_replacement_time 10000;
}

object fuse {
     name feeder_2_R3-12-47-1_fuse_26; 
     phases ABCN; 
     from feeder_2_R3-12-47-1_node_295; 
     to feeder_2_R3-12-47-1_node_296; 
     current_limit 10; 
     status CLOSED; 
     mean_replacement_time 10000;
}

object fuse {
     name feeder_2_R3-12-47-1_fuse_27; 
     phases ABCN; 
     from feeder_2_R3-12-47-1_node_303; 
     to feeder_2_R3-12-47-1_node_304; 
     current_limit 300; 
     status CLOSED; 
     mean_replacement_time 10000;
}

object fuse {
     name feeder_2_R3-12-47-1_fuse_28; 
     phases ABN; 
     from feeder_2_R3-12-47-1_node_318; 
     to feeder_2_R3-12-47-1_node_319; 
     current_limit 15; 
     status CLOSED; 
     mean_replacement_time 10000;
}

object fuse {
     name feeder_2_R3-12-47-1_fuse_29; 
     phases ABCN; 
     from feeder_2_R3-12-47-1_node_340; 
     to feeder_2_R3-12-47-1_node_341; 
     current_limit 18; 
     status CLOSED; 
     mean_replacement_time 10000;
}

object fuse {
     name feeder_2_R3-12-47-1_fuse_30; 
     phases ABCN; 
     from feeder_2_R3-12-47-1_node_342; 
     to feeder_2_R3-12-47-1_node_343; 
     current_limit 18; 
     status CLOSED; 
     mean_replacement_time 10000;
}

object fuse {
     name feeder_2_R3-12-47-1_fuse_31; 
     phases ABCN; 
     from feeder_2_R3-12-47-1_node_342; 
     to feeder_2_R3-12-47-1_node_344; 
     current_limit 18; 
     status CLOSED; 
     mean_replacement_time 10000;
}

object fuse {
     name feeder_2_R3-12-47-1_fuse_32; 
     phases ABCN; 
     from feeder_2_R3-12-47-1_node_347; 
     to feeder_2_R3-12-47-1_node_348; 
     current_limit 18; 
     status CLOSED; 
     mean_replacement_time 10000;
}

object fuse {
     name feeder_2_R3-12-47-1_fuse_33; 
     phases ABCN; 
     from feeder_2_R3-12-47-1_node_347; 
     to feeder_2_R3-12-47-1_node_349; 
     current_limit 18; 
     status CLOSED; 
     mean_replacement_time 10000;
}

object fuse {
     name feeder_2_R3-12-47-1_fuse_34; 
     phases ABCN; 
     from feeder_2_R3-12-47-1_node_353; 
     to feeder_2_R3-12-47-1_node_354; 
     current_limit 300; 
     status CLOSED; 
     mean_replacement_time 10000;
}

object fuse {
     name feeder_2_R3-12-47-1_fuse_35; 
     phases ABCN; 
     from feeder_2_R3-12-47-1_node_356; 
     to feeder_2_R3-12-47-1_node_357; 
     current_limit 300; 
     status CLOSED; 
     mean_replacement_time 10000;
}

object fuse {
     name feeder_2_R3-12-47-1_fuse_36; 
     phases ABCN; 
     from feeder_2_R3-12-47-1_node_362; 
     to feeder_2_R3-12-47-1_node_363; 
     current_limit 30; 
     status CLOSED; 
     mean_replacement_time 10000;
}

object fuse {
     name feeder_2_R3-12-47-1_fuse_37; 
     phases ABCN; 
     from feeder_2_R3-12-47-1_node_409; 
     to feeder_2_R3-12-47-1_node_410; 
     current_limit 125; 
     status CLOSED; 
     mean_replacement_time 10000;
}

object fuse {
     name feeder_2_R3-12-47-1_fuse_38; 
     phases ACN; 
     from feeder_2_R3-12-47-1_node_428; 
     to feeder_2_R3-12-47-1_node_429; 
     current_limit 20; 
     status CLOSED; 
     mean_replacement_time 10000;
}

object fuse {
     name feeder_2_R3-12-47-1_fuse_39; 
     phases ABCN; 
     from feeder_2_R3-12-47-1_node_432; 
     to feeder_2_R3-12-47-1_node_433; 
     current_limit 30; 
     status CLOSED; 
     mean_replacement_time 10000;
}

object fuse {
     name feeder_2_R3-12-47-1_fuse_40; 
     phases ABCN; 
     from feeder_2_R3-12-47-1_node_439; 
     to feeder_2_R3-12-47-1_node_440; 
     current_limit 80; 
     status CLOSED; 
     mean_replacement_time 10000;
}

object fuse {
     name feeder_2_R3-12-47-1_fuse_41; 
     phases ACN; 
     from feeder_2_R3-12-47-1_node_447; 
     to feeder_2_R3-12-47-1_node_448; 
     current_limit 30; 
     status CLOSED; 
     mean_replacement_time 10000;
}

object fuse {
     name feeder_2_R3-12-47-1_fuse_42; 
     phases ACN; 
     from feeder_2_R3-12-47-1_node_459; 
     to feeder_2_R3-12-47-1_node_460; 
     current_limit 40; 
     status CLOSED; 
     mean_replacement_time 10000;
}

object fuse {
     name feeder_2_R3-12-47-1_fuse_43; 
     phases ABCN; 
     from feeder_2_R3-12-47-1_node_393; 
     to feeder_2_R3-12-47-1_node_493; 
     current_limit 140; 
     status CLOSED; 
     mean_replacement_time 10000;
}

object fuse {
     name feeder_2_R3-12-47-1_fuse_44; 
     phases ABCN; 
     from feeder_2_R3-12-47-1_node_499; 
     to feeder_2_R3-12-47-1_node_500; 
     current_limit 150; 
     status CLOSED; 
     mean_replacement_time 10000;
}

object fuse {
     name feeder_2_R3-12-47-1_fuse_45; 
     phases ABCN; 
     from feeder_2_R3-12-47-1_node_513; 
     to feeder_2_R3-12-47-1_node_514; 
     current_limit 150; 
     status CLOSED; 
     mean_replacement_time 10000;
}

object fuse {
     name feeder_2_R3-12-47-1_fuse_46; 
     phases ABCN; 
     from feeder_2_R3-12-47-1_node_523; 
     to feeder_2_R3-12-47-1_node_525; 
     current_limit 30; 
     status CLOSED; 
     mean_replacement_time 10000;
}

object fuse {
     name feeder_2_R3-12-47-1_fuse_47; 
     phases ABN; 
     from feeder_2_R3-12-47-1_node_527; 
     to feeder_2_R3-12-47-1_node_528; 
     current_limit 30; 
     status CLOSED; 
     mean_replacement_time 10000;
}

object fuse {
     name feeder_2_R3-12-47-1_fuse_48; 
     phases ABCN; 
     from feeder_2_R3-12-47-1_node_530; 
     to feeder_2_R3-12-47-1_node_531; 
     current_limit 100; 
     status CLOSED; 
     mean_replacement_time 10000;
}

object fuse {
     name feeder_2_R3-12-47-1_fuse_49; 
     phases ABCN; 
     from feeder_2_R3-12-47-1_node_534; 
     to feeder_2_R3-12-47-1_node_535; 
     current_limit 30; 
     status CLOSED; 
     mean_replacement_time 10000;
}

object fuse {
     name feeder_2_R3-12-47-1_fuse_50; 
     phases ABCN; 
     from feeder_2_R3-12-47-1_node_537; 
     to feeder_2_R3-12-47-1_node_538; 
     current_limit 10; 
     status CLOSED; 
     mean_replacement_time 10000;
}

object fuse {
     name feeder_2_R3-12-47-1_fuse_51; 
     phases ABCN; 
     from feeder_2_R3-12-47-1_node_387; 
     to feeder_2_R3-12-47-1_node_542; 
     current_limit 150; 
     status CLOSED; 
     mean_replacement_time 10000;
}

object fuse {
     name feeder_2_R3-12-47-1_fuse_52; 
     phases ABCN; 
     from feeder_2_R3-12-47-1_node_545; 
     to feeder_2_R3-12-47-1_node_546; 
     current_limit 100; 
     status CLOSED; 
     mean_replacement_time 10000;
}

object fuse {
     name feeder_2_R3-12-47-1_fuse_53; 
     phases ABCN; 
     from feeder_2_R3-12-47-1_node_566; 
     to feeder_2_R3-12-47-1_node_569; 
     current_limit 80; 
     status CLOSED; 
     mean_replacement_time 10000;
}

object fuse {
     name feeder_2_R3-12-47-1_fuse_54; 
     phases ABCN; 
     from feeder_2_R3-12-47-1_node_574; 
     to feeder_2_R3-12-47-1_node_576; 
     current_limit 15; 
     status CLOSED; 
     mean_replacement_time 10000;
}

object fuse {
     name feeder_2_R3-12-47-1_fuse_55; 
     phases ABCN; 
     from feeder_2_R3-12-47-1_node_580; 
     to feeder_2_R3-12-47-1_node_581; 
     current_limit 150; 
     status CLOSED; 
     mean_replacement_time 10000;
}

object fuse {
     name feeder_2_R3-12-47-1_fuse_56; 
     phases ABCN; 
     from feeder_2_R3-12-47-1_node_586; 
     to feeder_2_R3-12-47-1_node_587; 
     current_limit 80; 
     status CLOSED; 
     mean_replacement_time 10000;
}

object fuse {
     name feeder_2_R3-12-47-1_fuse_57; 
     phases ABCN; 
     from feeder_2_R3-12-47-1_node_589; 
     to feeder_2_R3-12-47-1_node_590; 
     current_limit 150; 
     status CLOSED; 
     mean_replacement_time 10000;
}

object fuse {
     name feeder_2_R3-12-47-1_fuse_58; 
     phases ABCN; 
     from feeder_2_R3-12-47-1_node_596; 
     to feeder_2_R3-12-47-1_node_597; 
     current_limit 150; 
     status CLOSED; 
     mean_replacement_time 10000;
}

object fuse {
     name feeder_2_R3-12-47-1_fuse_59; 
     phases ABCN; 
     from feeder_2_R3-12-47-1_node_543; 
     to feeder_2_R3-12-47-1_node_611; 
     current_limit 10; 
     status CLOSED; 
     mean_replacement_time 10000;
}

object fuse {
     name feeder_2_R3-12-47-1_fuse_60; 
     phases ABCN; 
     from feeder_2_R3-12-47-1_node_614; 
     to feeder_2_R3-12-47-1_node_615; 
     current_limit 80; 
     status CLOSED; 
     mean_replacement_time 10000;
}

object fuse {
     name feeder_2_R3-12-47-1_fuse_61; 
     phases ABCN; 
     from feeder_2_R3-12-47-1_node_623; 
     to feeder_2_R3-12-47-1_node_632; 
     current_limit 150; 
     status CLOSED; 
     mean_replacement_time 10000;
}

object line_configuration {
     name f2_line_configuration_24;
     conductor_A f2_overhead_line_conductor_2;
     conductor_B f2_overhead_line_conductor_2;
     conductor_C f2_overhead_line_conductor_2;
     conductor_N f2_overhead_line_conductor_2;
     spacing f2_line_spacing_17;
}  

object line_configuration {
     name f2_line_configuration_25;
     conductor_A f2_overhead_line_conductor_2;
     conductor_B f2_overhead_line_conductor_2;
     conductor_N f2_overhead_line_conductor_2;
     spacing f2_line_spacing_18;
}  

object line_configuration {
     name f2_line_configuration_26;
     conductor_B f2_overhead_line_conductor_2;
     conductor_C f2_overhead_line_conductor_2;
     conductor_N f2_overhead_line_conductor_2;
     spacing f2_line_spacing_19;
}  

object line_configuration {
     name f2_line_configuration_27;
     conductor_A f2_underground_line_conductor_3;
     conductor_B f2_underground_line_conductor_3;
     conductor_C f2_underground_line_conductor_3;
     conductor_N f2_underground_line_conductor_3;
     spacing f2_line_spacing_17;
}  

object line_configuration {
     name f2_line_configuration_28;
     conductor_A f2_overhead_line_conductor_4;
     conductor_C f2_overhead_line_conductor_4;
     conductor_N f2_overhead_line_conductor_4;
     spacing f2_line_spacing_20;
}  

object line_configuration {
     name f2_line_configuration_29;
     conductor_A f2_underground_line_conductor_5;
     conductor_C f2_underground_line_conductor_5;
     conductor_N f2_underground_line_conductor_5;
     spacing f2_line_spacing_20;
}  

object line_configuration {
     name f2_line_configuration_30;
     conductor_B f2_underground_line_conductor_3;
     conductor_C f2_underground_line_conductor_3;
     conductor_N f2_underground_line_conductor_3;
     spacing f2_line_spacing_19;
}  

object line_configuration {
     name f2_line_configuration_31;
     conductor_A f2_underground_line_conductor_5;
     conductor_B f2_underground_line_conductor_5;
     conductor_C f2_underground_line_conductor_5;
     conductor_N f2_underground_line_conductor_5;
     spacing f2_line_spacing_17;
}  

object line_configuration {
     name f2_line_configuration_32;
     conductor_A f2_underground_line_conductor_3;
     conductor_C f2_underground_line_conductor_3;
     conductor_N f2_underground_line_conductor_3;
     spacing f2_line_spacing_20;
}  

object line_configuration {
     name f2_line_configuration_33;
     conductor_A f2_overhead_line_conductor_6;
     conductor_C f2_overhead_line_conductor_6;
     conductor_N f2_overhead_line_conductor_6;
     spacing f2_line_spacing_20;
}  

object line_configuration {
     name f2_line_configuration_34;
     conductor_A f2_overhead_line_conductor_4;
     conductor_N f2_overhead_line_conductor_4;
     spacing f2_line_spacing_21;
}  

object line_configuration {
     name f2_line_configuration_35;
     conductor_A f2_overhead_line_conductor_7;
     conductor_B f2_overhead_line_conductor_7;
     conductor_C f2_overhead_line_conductor_7;
     conductor_N f2_overhead_line_conductor_7;
     spacing f2_line_spacing_17;
}  

object line_configuration {
     name f2_line_configuration_36;
     conductor_A f2_overhead_line_conductor_4;
     conductor_B f2_overhead_line_conductor_4;
     conductor_C f2_overhead_line_conductor_4;
     conductor_N f2_overhead_line_conductor_4;
     spacing f2_line_spacing_17;
}  

object line_configuration {
     name f2_line_configuration_37;
     conductor_A f2_underground_line_conductor_8;
     conductor_B f2_underground_line_conductor_8;
     conductor_C f2_underground_line_conductor_8;
     conductor_N f2_underground_line_conductor_8;
     spacing f2_line_spacing_17;
}  

object line_configuration {
     name f2_line_configuration_38;
     conductor_B f2_underground_line_conductor_3;
     conductor_N f2_underground_line_conductor_3;
     spacing f2_line_spacing_22;
}  

object line_configuration {
     name f2_line_configuration_39;
     conductor_A f2_underground_line_conductor_3;
     conductor_N f2_underground_line_conductor_3;
     spacing f2_line_spacing_21;
}  

object line_configuration {
     name f2_line_configuration_40;
     conductor_A f2_underground_line_conductor_3;
     conductor_B f2_underground_line_conductor_3;
     conductor_N f2_underground_line_conductor_3;
     spacing f2_line_spacing_18;
}  

object line_configuration {
     name f2_line_configuration_41;
     conductor_C f2_underground_line_conductor_3;
     conductor_N f2_underground_line_conductor_3;
     spacing f2_line_spacing_23;
}  

object line_configuration {
     name f2_line_configuration_42;
     conductor_A f2_overhead_line_conductor_9;
     conductor_B f2_overhead_line_conductor_9;
     conductor_C f2_overhead_line_conductor_9;
     conductor_N f2_overhead_line_conductor_9;
     spacing f2_line_spacing_17;
}  

object line_configuration {
     name f2_line_configuration_43;
     conductor_B f2_overhead_line_conductor_10;
     conductor_N f2_overhead_line_conductor_10;
     spacing f2_line_spacing_22;
}  

object line_configuration {
     name f2_line_configuration_44;
     conductor_A f2_overhead_line_conductor_2;
     conductor_C f2_overhead_line_conductor_2;
     conductor_N f2_overhead_line_conductor_2;
     spacing f2_line_spacing_20;
}  

object line_configuration {
     name f2_line_configuration_45;
     conductor_A f2_underground_line_conductor_5;
     conductor_B f2_underground_line_conductor_5;
     conductor_N f2_underground_line_conductor_5;
     spacing f2_line_spacing_18;
}  

object line_configuration {
     name f2_line_configuration_46;
     conductor_B f2_overhead_line_conductor_4;
     conductor_C f2_overhead_line_conductor_4;
     conductor_N f2_overhead_line_conductor_4;
     spacing f2_line_spacing_19;
}  

object line_configuration {
     name f2_line_configuration_47;
     conductor_A f2_underground_line_conductor_11;
     conductor_B f2_underground_line_conductor_11;
     conductor_C f2_underground_line_conductor_11;
     conductor_N f2_underground_line_conductor_11;
     spacing f2_line_spacing_17;
}  

object line_configuration {
     name f2_line_configuration_48;
     conductor_A f2_underground_line_conductor_12;
     conductor_B f2_underground_line_conductor_12;
     conductor_C f2_underground_line_conductor_12;
     conductor_N f2_underground_line_conductor_12;
     spacing f2_line_spacing_17;
}  

object line_configuration {
     name f2_line_configuration_49;
     conductor_A f2_underground_line_conductor_13;
     conductor_B f2_underground_line_conductor_13;
     conductor_C f2_underground_line_conductor_13;
     conductor_N f2_underground_line_conductor_13;
     spacing f2_line_spacing_17;
}  

object line_configuration {
     name f2_line_configuration_50;
     conductor_A f2_underground_line_conductor_14;
     conductor_B f2_underground_line_conductor_14;
     conductor_C f2_underground_line_conductor_14;
     conductor_N f2_underground_line_conductor_14;
     spacing f2_line_spacing_17;
}  

object line_configuration {
     name f2_line_configuration_51;
     conductor_A f2_underground_line_conductor_14;
     conductor_B f2_underground_line_conductor_14;
     conductor_N f2_underground_line_conductor_14;
     spacing f2_line_spacing_18;
}  

object line_configuration {
     name f2_line_configuration_52;
     conductor_A f2_overhead_line_conductor_4;
     conductor_B f2_overhead_line_conductor_4;
     conductor_N f2_overhead_line_conductor_4;
     spacing f2_line_spacing_18;
}  

object line_configuration {
     name f2_line_configuration_53;
     conductor_A f2_overhead_line_conductor_10;
     conductor_B f2_overhead_line_conductor_10;
     conductor_C f2_overhead_line_conductor_10;
     conductor_N f2_overhead_line_conductor_10;
     spacing f2_line_spacing_17;
}  

object line_configuration {
     name f2_line_configuration_54;
     conductor_C f2_overhead_line_conductor_4;
     conductor_N f2_overhead_line_conductor_4;
     spacing f2_line_spacing_23;
}  

object line_configuration {
     name f2_line_configuration_55;
     conductor_C f2_overhead_line_conductor_10;
     conductor_N f2_overhead_line_conductor_10;
     spacing f2_line_spacing_23;
}  

object line_configuration {
     name f2_line_configuration_56;
     conductor_C f2_overhead_line_conductor_2;
     conductor_N f2_overhead_line_conductor_2;
     spacing f2_line_spacing_23;
}  

object line_configuration {
     name f2_line_configuration_57;
     conductor_A f2_underground_line_conductor_14;
     conductor_C f2_underground_line_conductor_14;
     conductor_N f2_underground_line_conductor_14;
     spacing f2_line_spacing_20;
}  

object line_configuration {
     name f2_line_configuration_58;
     conductor_A f2_underground_line_conductor_5;
     conductor_N f2_underground_line_conductor_5;
     spacing f2_line_spacing_21;
}  

object line_configuration {
     name f2_line_configuration_59;
     conductor_A f2_overhead_line_conductor_9;
     conductor_N f2_overhead_line_conductor_9;
     spacing f2_line_spacing_21;
}  

object line_configuration {
     name f2_line_configuration_60;
     conductor_A f2_overhead_line_conductor_6;
     conductor_B f2_overhead_line_conductor_6;
     conductor_C f2_overhead_line_conductor_6;
     conductor_N f2_overhead_line_conductor_6;
     spacing f2_line_spacing_17;
}  

object line_configuration {
     name f2_line_configuration_61;
     conductor_A f2_overhead_line_conductor_15;
     conductor_B f2_overhead_line_conductor_15;
     conductor_C f2_overhead_line_conductor_15;
     conductor_N f2_overhead_line_conductor_15;
     spacing f2_line_spacing_17;
}  

object line_configuration {
     name f2_line_configuration_62;
     conductor_B f2_underground_line_conductor_5;
     conductor_C f2_underground_line_conductor_5;
     conductor_N f2_underground_line_conductor_5;
     spacing f2_line_spacing_19;
}  

object line_configuration {
     name f2_line_configuration_63;
     conductor_A f2_underground_line_conductor_16;
     conductor_B f2_underground_line_conductor_16;
     conductor_C f2_underground_line_conductor_16;
     conductor_N f2_underground_line_conductor_16;
     spacing f2_line_spacing_17;
}  

object line_spacing {
     name f2_line_spacing_17;
     distance_AB 37.0 in;
     distance_BC 37.0 in;
     distance_AC 37.0 in;
     distance_AN 37.0 in;
     distance_BN 37.0 in;
     distance_CN 37.0 in;
}  

object line_spacing {
     name f2_line_spacing_18;
     distance_AB 37.0 in;
     distance_AN 37.0 in;
     distance_BN 37.0 in;
}  

object line_spacing {
     name f2_line_spacing_19;
     distance_BC 37.0 in;
     distance_BN 37.0 in;
     distance_CN 37.0 in;
}  

object line_spacing {
     name f2_line_spacing_20;
     distance_AC 37.0 in;
     distance_AN 37.0 in;
     distance_CN 37.0 in;
}  

object line_spacing {
     name f2_line_spacing_21;
     distance_AN 37.0 in;
}  

object line_spacing {
     name f2_line_spacing_22;
     distance_BN 37.0 in;
}  

object line_spacing {
     name f2_line_spacing_23;
     distance_CN 37.0 in;
}  

// Static Loads

object load {
     name feeder_2_R3-12-47-1_load_1; 
     parent feeder_2_R3-12-47-1_meter_1; 
     phases ABCN; 
     constant_power_A_real 113333.3*power_mag_1;
     constant_power_A_reac 70200.0*power_mag_1;
     constant_power_B_real 113333.3*power_mag_1;
     constant_power_B_reac 70200.0*power_mag_1;
     constant_power_C_real 113333.3*power_mag_1;
     constant_power_C_reac 70200.0*power_mag_1;
     nominal_voltage 7199.558; 
     load_class C; 
}  

object load {
     name feeder_2_R3-12-47-1_load_2; 
     parent feeder_2_R3-12-47-1_meter_2; 
     phases ABCN; 
     constant_power_A_real 23683.3*power_mag_1;
     constant_power_A_reac 14402.7*power_mag_1;
     constant_power_B_real 23683.3*power_mag_1;
     constant_power_B_reac 14402.7*power_mag_1;
     constant_power_C_real 23683.3*power_mag_1;
     constant_power_C_reac 14402.7*power_mag_1;
     nominal_voltage 7199.558; 
     load_class C; 
}  

object load {
     name feeder_2_R3-12-47-1_load_3; 
     parent feeder_2_R3-12-47-1_meter_3; 
     phases ABCN; 
     constant_power_A_real 5913.9*power_mag_1;
     constant_power_A_reac 3596.5*power_mag_1;
     constant_power_B_real 5913.9*power_mag_1;
     constant_power_B_reac 3596.5*power_mag_1;
     constant_power_C_real 5913.9*power_mag_1;
     constant_power_C_reac 3596.5*power_mag_1;
     nominal_voltage 7199.558; 
     load_class C; 
}  

object load {
     name feeder_2_R3-12-47-1_load_4; 
     parent feeder_2_R3-12-47-1_meter_4; 
     phases ABCN; 
     constant_power_A_real 5913.9*power_mag_1;
     constant_power_A_reac 3596.5*power_mag_1;
     constant_power_B_real 5913.9*power_mag_1;
     constant_power_B_reac 3596.5*power_mag_1;
     constant_power_C_real 5913.9*power_mag_1;
     constant_power_C_reac 3596.5*power_mag_1;
     nominal_voltage 7199.558; 
     load_class C; 
}  

object load {
     name feeder_2_R3-12-47-1_load_5; 
     parent feeder_2_R3-12-47-1_meter_5; 
     phases ABCN; 
     constant_power_A_real 5913.9*power_mag_1;
     constant_power_A_reac 3596.5*power_mag_1;
     constant_power_B_real 5913.9*power_mag_1;
     constant_power_B_reac 3596.5*power_mag_1;
     constant_power_C_real 5913.9*power_mag_1;
     constant_power_C_reac 3596.5*power_mag_1;
     nominal_voltage 7199.558; 
     load_class C; 
}  

object load {
     name feeder_2_R3-12-47-1_load_6; 
     parent feeder_2_R3-12-47-1_meter_6; 
     phases ABCN; 
     constant_power_A_real 27333.3*power_mag_1;
     constant_power_A_reac 16933.3*power_mag_1;
     constant_power_B_real 27333.3*power_mag_1;
     constant_power_B_reac 16933.3*power_mag_1;
     constant_power_C_real 27333.3*power_mag_1;
     constant_power_C_reac 16933.3*power_mag_1;
     nominal_voltage 7199.558; 
     load_class C; 
}  

object load {
     name feeder_2_R3-12-47-1_load_7; 
     parent feeder_2_R3-12-47-1_meter_7; 
     phases ABCN; 
     constant_power_A_real 134466.7*power_mag_1;
     constant_power_A_reac 83333.3*power_mag_1;
     constant_power_B_real 134466.7*power_mag_1;
     constant_power_B_reac 83333.3*power_mag_1;
     constant_power_C_real 134466.7*power_mag_1;
     constant_power_C_reac 83333.3*power_mag_1;
     nominal_voltage 7199.558; 
     load_class C; 
}  

object load {
     name feeder_2_R3-12-47-1_load_8; 
     parent feeder_2_R3-12-47-1_meter_8; 
     phases ABCN; 
     constant_power_A_real 23683.3*power_mag_1;
     constant_power_A_reac 14402.7*power_mag_1;
     constant_power_B_real 23683.3*power_mag_1;
     constant_power_B_reac 14402.7*power_mag_1;
     constant_power_C_real 23683.3*power_mag_1;
     constant_power_C_reac 14402.7*power_mag_1;
     nominal_voltage 7199.558; 
     load_class C; 
}  

object load {
     name feeder_2_R3-12-47-1_load_9; 
     parent feeder_2_R3-12-47-1_meter_9; 
     phases ABCN; 
...